LAMMPS (13 Jan 2016)
include /users/knc6/inelast.mod
# Compute elastic constant tensor for a crystal
#
# Written by Aidan Thompson (Sandia, athomps@sandia.gov)
#
#  This script uses the following three include files.
#
#   init.mod      (must be modified for different crystal structures)
# 	       	  Define units, deformation parameters and initial
#		  configuration of the atoms and simulation cell.
#
#
#   potential.mod    (must be modified for different pair styles)
# 		     Define pair style and other attributes
#		     not stored in restart file
#
#
#   displace.mod    (displace.mod should not need to be modified)
# 		    Perform positive and negative box displacements
# 		    It uses the resultant changes
#		    in stress to compute one
# 		    row of the elastic stiffness tensor
#
#		    Inputs variables:
#		    	   dir = the Voigt deformation component
#		    		    (1,2,3,4,5,6)
#		    Global constants:
#       	    	   up = the deformation magnitude (strain units)
#       		   cfac = conversion from LAMMPS pressure units to
#               	   output units for elastic constants
#
#
#  To run this on a different system, it should only be necessary to
#  modify the files init.mod and potential.mod. In order to calculate
#  the elastic constants correctly, care must be taken to specify
#  the correct units in init.mod (units, cfac and cunits). It is also
#  important to verify that the minimization of energy w.r.t atom
#  positions in the deformed cell is fully converged.
#  One indication of this is that the elastic constants are insensitive
#  the final max and two-norm forces reported in the log file. If you know
#  that minimization is not required, you can set maxiter = 0.0 in
#  init.mod.
#
#  There are two alternate versions of displace.mod provided.
#  They are displace_restart.mod and displace_reverse.mod.
#  The former resets the box using a restart file while
#  the latter reverses the deformation. Copy whichever
#  one you like best to displace.mod.
#

include init.mod
variable dump_file string "None"
variable up  equal 1.0e-6
variable cfac  equal 1.0e-4
variable cunits  string GPa
variable etol  equal 0
variable ftol  equal 1.0e-10
variable maxiter equal 1000
variable maxeval equal 10000
variable dmax equal 1.0e-2
variable data_file string "data"
units metal
atom_style charge
boundary p p p
atom_modify sort 0 0.0

read_data data
  triclinic box = (0 0 0) to (20.25 28.6378 45.8205) with tilt (0 0 0)
  reading atoms ...
  700 atoms

### interactions
mass 1 26.98154
include potential.mod
pair_style eam/alloy
pair_coeff * * /users/knc6/Software/jarvis/jarvis/lammps/examples/Al03.eam.alloy  Al
neighbor 1.0 nsq
neigh_modify once no every 1 delay 0 check yes
min_style  cg
min_modify           dmax 0.01 line quadratic
thermo          1
thermo_style custom step temp press cpu pxx pyy pzz pxy pxz pyz ke pe etotal vol lx ly lz atoms
thermo_modify norm no
#fix 3 all nph aniso 0.0 0.0 1.0
#fix langevin all langevin 0.0 0.0 1.0 12233

#fix 3 all box/relax tri 0.0 vmax 0.001
fix            3 all box/relax aniso 0.0 vmax 0.001
#fix 3 all box/relax  aniso 0.0
#dump            2a all cfg 100 *.cfg mass type xs ys zs  vx vy vz fx fy fz
#dump_modify     2a element  Mo S

#fix 1a all qeq/comb 1 0.0001 file fq.out
#fix             2 all qeq/reax 1 0.0 10.0 1e-6 /scratch/lfs/kamal/JARVIS/All2/ReaxFF/param.qeq
minimize 0 1e-10 1000 10000
  1 neighbor list requests
  update every 1 steps, delay 0 steps, check yes
Step Temp Press CPU Pxx Pyy Pzz Pxy Pxz Pyz KinEng PotEng TotEng Volume Lx Ly Lz Atoms
0            0   -12274.984            0   -14773.108   -12281.307   -9770.5372 9.8763838e-12 2.4291846e-06 1.1649497e-11            0   -2290.2735   -2290.2735    26572.049        20.25    28.637824    45.820519      700
Averages over the last 501 of 1001 rows, steps 500 to 1000:
Temp Press Pxx Pyy Pzz Pxy Pxz Pyz KinEng PotEng TotEng Volume Lx Ly Lz Atoms
0 5.25385e-06 -2.23431e-06 -3.21321e-05 5.01279e-05 -3.16714e-14 3.96471e-08 -3.00727e-11 0 -2296.7 -2296.7 25865.5 19.8789 28.2946 45.9862 700
Loop time of 4.5576 on 1 procs for 1000 steps with 700 atoms

Minimization stats:
  Stopping criterion = max iterations
  Energy initial, next-to-last, final =
  Force two-norm initial, final = 357.493 2.07274e-10
  Force max component initial, final = 245.012 1.75672e-10
  Final line search alpha, max atom move = 1 1.75672e-10
  Iterations, force evaluations = 1000 1896

variable tmp equal pxx
variable pxx0 equal 1.06821317577293e-08
variable tmp equal pyy
variable pyy0 equal 5.15576217576703e-09
variable tmp equal pzz
variable pzz0 equal -3.58523526222607e-09
variable tmp equal pyz
variable pyz0 equal -7.50551631185423e-11
variable tmp equal pxz
variable pxz0 equal 1.49572776828898e-08
variable tmp equal pxy
variable pxy0 equal 3.85284001646182e-12

variable tmp equal lx
variable lx0 equal 19.8788533958819
variable tmp equal ly
variable ly0 equal 28.2945533378165
variable tmp equal lz
variable lz0 equal 45.986176636177

# These formulas define the derivatives w.r.t. strain components
# Constants uses $, variables use v_
variable d1 equal -(v_pxx1-1.06821317577293e-08)/(v_delta/v_len0)*0.0001
variable d2 equal -(v_pyy1-5.15576217576703e-09)/(v_delta/v_len0)*0.0001
variable d3 equal -(v_pzz1--3.58523526222607e-09)/(v_delta/v_len0)*0.0001
variable d4 equal -(v_pyz1--7.50551631185423e-11)/(v_delta/v_len0)*0.0001
variable d5 equal -(v_pxz1-1.49572776828898e-08)/(v_delta/v_len0)*0.0001
variable d6 equal -(v_pxy1-3.85284001646182e-12)/(v_delta/v_len0)*0.0001

# Write restart
unfix 3
minimize 0 1e-10 1000 10000
Step Temp Press CPU Pxx Pyy Pzz Pxy Pxz Pyz KinEng PotEng TotEng Volume Lx Ly Lz Atoms
1000            0 4.0915152e-09            0 1.0681297e-08 5.1499992e-09 -3.5567507e-09 -2.015821e-13 1.4955749e-08 -7.829595e-11            0   -2296.7029   -2296.7029    25865.536    19.878853    28.294553    45.986177      700
Loop time of 0.00712585 on 1 procs for 1 steps with 700 atoms

Minimization stats:
  Stopping criterion = force tolerance
  Energy initial, next-to-last, final =
  Force two-norm initial, final = 4.08973e-11 1.7999e-11
  Force max component initial, final = 2.71263e-12 1.62682e-12
  Final line search alpha, max atom move = 1 1.62682e-12
  Iterations, force evaluations = 1 2

#fix 1a all qeq/comb 1 0.0001 file fq.out
write_restart restart.equil
write_data data0

# uxx Perturbation

variable dir equal 1
include /users/knc6/displace.mod
# NOTE: This script should not need to be
# modified. See in.elastic for more info.
#
# Find which reference length to use

variable len0 equal 19.8788533958819

# Reset box and simulation parameters

clear
box tilt large
read_restart restart.equil
  triclinic box = (0.185573 0.171636 -0.0828288) to (20.0644 28.4662 45.9033) with tilt (0 0 0)
  700 atoms
include potential.mod
pair_style eam/alloy
pair_coeff * * /users/knc6/Software/jarvis/jarvis/lammps/examples/Al03.eam.alloy  Al
neighbor 1.0 nsq
neigh_modify once no every 1 delay 0 check yes
min_style  cg
min_modify           dmax 0.01 line quadratic
thermo          1
thermo_style custom step temp press cpu pxx pyy pzz pxy pxz pyz ke pe etotal vol lx ly lz atoms
thermo_modify norm no
# Negative deformation

variable delta equal -1e-06*19.8788533958819
change_box all x delta 0 -1.98788533958819e-05 remap units box
  triclinic box = (0.185573 0.171636 -0.0828288) to (20.0644 28.4662 45.9033) with tilt (0 0 0)

# Relax atoms positions

minimize 0 1e-10 1000 10000
  1 neighbor list requests
  update every 1 steps, delay 0 steps, check yes
Step Temp Press CPU Pxx Pyy Pzz Pxy Pxz Pyz KinEng PotEng TotEng Volume Lx Ly Lz Atoms
1001            0   0.37563747            0   0.56123956   0.28332249   0.28235037 9.3871163e-13 1.4736756e-08 -7.6949209e-11            0   -2296.7029   -2296.7029     25865.51    19.878834    28.294553    45.986177      700
Loop time of 0.0355 on 1 procs for 7 steps with 700 atoms

Minimization stats:
  Stopping criterion = force tolerance
  Energy initial, next-to-last, final =
  Force two-norm initial, final = 5.75961e-05 3.62565e-11
  Force max component initial, final = 5.70506e-06 2.69612e-12
  Final line search alpha, max atom move = 1 2.69612e-12
  Iterations, force evaluations = 7 14

# Obtain new stress tensor

variable tmp equal pxx
variable pxx1 equal 0.381061325821699
variable tmp equal pyy
variable pyy1 equal 0.137028661137273
variable tmp equal pzz
variable pzz1 equal -1.17698778884073e-07
variable tmp equal pxy
variable pxy1 equal -6.22283283576615e-12
variable tmp equal pxz
variable pxz1 equal 8.80647519003919e-09
variable tmp equal pyz
variable pyz1 equal -3.14199761392291e-11

# Compute elastic constant from pressure tensor

variable C1neg equal 38.1061315139567
variable C2neg equal 13.7028655981511
variable C3neg equal -1.14113543621847e-05
variable C4neg equal 4.36351869793132e-09
variable C5neg equal -6.15080249285061e-07
variable C6neg equal -1.0075672852228e-09

# Reset box and simulation parameters

clear
box tilt large
read_restart restart.equil
  triclinic box = (0.185573 0.171636 -0.0828288) to (20.0644 28.4662 45.9033) with tilt (0 0 0)
  700 atoms
include potential.mod
pair_style eam/alloy
pair_coeff * * /users/knc6/Software/jarvis/jarvis/lammps/examples/Al03.eam.alloy  Al
neighbor 1.0 nsq
neigh_modify once no every 1 delay 0 check yes
min_style  cg
min_modify           dmax 0.01 line quadratic
thermo          1
thermo_style custom step temp press cpu pxx pyy pzz pxy pxz pyz ke pe etotal vol lx ly lz atoms
thermo_modify norm no

# Positive deformation

variable delta equal 1e-06*19.8788533958819
change_box all x delta 0 1.98788533958819e-05 remap units box
  triclinic box = (0.185573 0.171636 -0.0828288) to (20.0644 28.4662 45.9033) with tilt (0 0 0)

# Relax atoms positions

minimize 0 1e-10 1000 10000
  1 neighbor list requests
  update every 1 steps, delay 0 steps, check yes
Step Temp Press CPU Pxx Pyy Pzz Pxy Pxz Pyz KinEng PotEng TotEng Volume Lx Ly Lz Atoms
1001            0  -0.37563526            0  -0.56123649  -0.28332068  -0.28234861 -6.4807077e-12 1.4717147e-08 -7.5097425e-11            0   -2296.7029   -2296.7029    25865.562    19.878873    28.294553    45.986177      700
Loop time of 0.036274 on 1 procs for 7 steps with 700 atoms

Minimization stats:
  Stopping criterion = force tolerance
  Energy initial, next-to-last, final =
  Force two-norm initial, final = 5.75959e-05 3.76976e-11
  Force max component initial, final = 5.70503e-06 2.63979e-12
  Final line search alpha, max atom move = 1 2.63979e-12
  Iterations, force evaluations = 7 14

# Obtain new stress tensor

variable tmp equal pe
variable e1 equal -2296.70291884308
variable tmp equal press
variable p1 equal -0.172696506906456
variable tmp equal pxx
variable pxx1 equal -0.381060734414776
variable tmp equal pyy
variable pyy1 equal -0.137028652428572
variable tmp equal pzz
variable pzz1 equal -1.33876019712532e-07
variable tmp equal pxy
variable pxy1 equal 7.6399110674304e-12
variable tmp equal pxz
variable pxz1 equal 9.4997258874093e-09
variable tmp equal pyz
variable pyz1 equal -2.95630173337101e-11

# Compute elastic constant from pressure tensor

variable C1pos equal 38.1060745096908
variable C2pos equal 13.7028657584334
variable C3pos equal 1.30290784450306e-05
variable C4pos equal -4.54921457848322e-09
variable C5pos equal 5.4575517954805e-07
variable C6pos equal -3.78707105096858e-10

# Combine positive and negative

variable C11 equal 0.5*(38.1061315139567+38.1060745096908)
variable C21 equal 0.5*(13.7028655981511+13.7028657584334)
variable C31 equal 0.5*(-1.14113543621847e-05+1.30290784450306e-05)
variable C41 equal 0.5*(4.36351869793132e-09+-4.54921457848322e-09)
variable C51 equal 0.5*(-6.15080249285061e-07+5.4575517954805e-07)
variable C61 equal 0.5*(-1.0075672852228e-09+-3.78707105096858e-10)

# Delete dir to make sure it is not reused

variable dir delete

# uyy Perturbation

variable dir equal 2
include /users/knc6/displace.mod
# NOTE: This script should not need to be
# modified. See in.elastic for more info.
#
# Find which reference length to use

variable len0 equal 28.2945533378165

# Reset box and simulation parameters

clear
box tilt large
read_restart restart.equil
  triclinic box = (0.185573 0.171636 -0.0828288) to (20.0644 28.4662 45.9033) with tilt (0 0 0)
  700 atoms
include potential.mod
pair_style eam/alloy
pair_coeff * * /users/knc6/Software/jarvis/jarvis/lammps/examples/Al03.eam.alloy  Al
neighbor 1.0 nsq
neigh_modify once no every 1 delay 0 check yes
min_style  cg
min_modify           dmax 0.01 line quadratic
thermo          1
thermo_style custom step temp press cpu pxx pyy pzz pxy pxz pyz ke pe etotal vol lx ly lz atoms
thermo_modify norm no
# Negative deformation

variable delta equal -1e-06*28.2945533378165
change_box all y delta 0 -2.82945533378165e-05 remap units box
  triclinic box = (0.185573 0.171636 -0.0828288) to (20.0644 28.4662 45.9033) with tilt (0 0 0)

# Relax atoms positions

minimize 0 1e-10 1000 10000
  1 neighbor list requests
  update every 1 steps, delay 0 steps, check yes
Step Temp Press CPU Pxx Pyy Pzz Pxy Pxz Pyz KinEng PotEng TotEng Volume Lx Ly Lz Atoms
1001            0   0.37056496            0   0.28332234   0.58953079   0.23884175 7.9962413e-12 1.4742615e-08 -7.4236015e-11            0   -2296.7029   -2296.7029     25865.51    19.878853    28.294525    45.986177      700
Loop time of 0.0357511 on 1 procs for 7 steps with 700 atoms

Minimization stats:
  Stopping criterion = force tolerance
  Energy initial, next-to-last, final =
  Force two-norm initial, final = 3.56939e-05 5.31287e-11
  Force max component initial, final = 3.3889e-06 3.22652e-12
  Final line search alpha, max atom move = 1 3.22652e-12
  Iterations, force evaluations = 7 14

# Obtain new stress tensor

variable tmp equal pxx
variable pxx1 equal 0.137028501618188
variable tmp equal pyy
variable pyy1 equal 0.465914503562285
variable tmp equal pzz
variable pzz1 equal -3.72903935928225e-07
variable tmp equal pxy
variable pxy1 equal -4.73911830689029e-12
variable tmp equal pxz
variable pxz1 equal 8.21559748386579e-09
variable tmp equal pyz
variable pyz1 equal -3.57875210943775e-11

# Compute elastic constant from pressure tensor

variable C1neg equal 13.7028490936056
variable C2neg equal 46.5914498406523
variable C3neg equal -3.69318700665999e-05
variable C4neg equal 3.92676420241648e-09
variable C5neg equal -6.74168019902401e-07
variable C6neg equal -8.59195832335211e-10

# Reset box and simulation parameters

clear
box tilt large
read_restart restart.equil
  triclinic box = (0.185573 0.171636 -0.0828288) to (20.0644 28.4662 45.9033) with tilt (0 0 0)
  700 atoms
include potential.mod
pair_style eam/alloy
pair_coeff * * /users/knc6/Software/jarvis/jarvis/lammps/examples/Al03.eam.alloy  Al
neighbor 1.0 nsq
neigh_modify once no every 1 delay 0 check yes
min_style  cg
min_modify           dmax 0.01 line quadratic
thermo          1
thermo_style custom step temp press cpu pxx pyy pzz pxy pxz pyz ke pe etotal vol lx ly lz atoms
thermo_modify norm no

# Positive deformation

variable delta equal 1e-06*28.2945533378165
change_box all y delta 0 2.82945533378165e-05 remap units box
  triclinic box = (0.185573 0.171636 -0.0828288) to (20.0644 28.4662 45.9033) with tilt (0 0 0)

# Relax atoms positions

minimize 0 1e-10 1000 10000
  1 neighbor list requests
  update every 1 steps, delay 0 steps, check yes
Step Temp Press CPU Pxx Pyy Pzz Pxy Pxz Pyz KinEng PotEng TotEng Volume Lx Ly Lz Atoms
1001            0  -0.37056154            0  -0.28332039   -0.5895239  -0.23884035 8.0018129e-12 1.4740285e-08 -7.0459429e-11            0   -2296.7029   -2296.7029    25865.562    19.878853    28.294582    45.986177      700
Loop time of 0.0361209 on 1 procs for 7 steps with 700 atoms

Minimization stats:
  Stopping criterion = force tolerance
  Energy initial, next-to-last, final =
  Force two-norm initial, final = 3.56939e-05 5.49915e-11
  Force max component initial, final = 3.38889e-06 3.2855e-12
  Final line search alpha, max atom move = 1 3.2855e-12
  Iterations, force evaluations = 7 14

# Obtain new stress tensor

variable tmp equal pe
variable e1 equal -2296.70291884244
variable tmp equal press
variable p1 equal -0.200979482683414
variable tmp equal pxx
variable pxx1 equal -0.137028508418043
variable tmp equal pyy
variable pyy1 equal -0.465909566746882
variable tmp equal pzz
variable pzz1 equal -3.72885316812417e-07
variable tmp equal pxy
variable pxy1 equal 1.34531204731686e-12
variable tmp equal pxz
variable pxz1 equal 8.19452498499204e-09
variable tmp equal pyz
variable pyz1 equal -3.17371146702406e-11

# Compute elastic constant from pressure tensor

variable C1pos equal 13.7028519100175
variable C2pos equal 46.5909571902644
variable C3pos equal 3.69300081550191e-05
variable C4pos equal -4.33180484483017e-09
variable C5pos equal 6.76275269789776e-07
variable C6pos equal 2.50752796914496e-10

# Combine positive and negative

variable C12 equal 0.5*(13.7028490936056+13.7028519100175)
variable C22 equal 0.5*(46.5914498406523+46.5909571902644)
variable C32 equal 0.5*(-3.69318700665999e-05+3.69300081550191e-05)
variable C42 equal 0.5*(3.92676420241648e-09+-4.33180484483017e-09)
variable C52 equal 0.5*(-6.74168019902401e-07+6.76275269789776e-07)
variable C62 equal 0.5*(-8.59195832335211e-10+2.50752796914496e-10)

# Delete dir to make sure it is not reused

variable dir delete

# uzz Perturbation

variable dir equal 3
include /users/knc6/displace.mod
# NOTE: This script should not need to be
# modified. See in.elastic for more info.
#
# Find which reference length to use

variable len0 equal 45.986176636177

# Reset box and simulation parameters

clear
box tilt large
read_restart restart.equil
  triclinic box = (0.185573 0.171636 -0.0828288) to (20.0644 28.4662 45.9033) with tilt (0 0 0)
  700 atoms
include potential.mod
pair_style eam/alloy
pair_coeff * * /users/knc6/Software/jarvis/jarvis/lammps/examples/Al03.eam.alloy  Al
neighbor 1.0 nsq
neigh_modify once no every 1 delay 0 check yes
min_style  cg
min_modify           dmax 0.01 line quadratic
thermo          1
thermo_style custom step temp press cpu pxx pyy pzz pxy pxz pyz ke pe etotal vol lx ly lz atoms
thermo_modify norm no
# Negative deformation

variable delta equal -1e-06*45.986176636177
change_box all z delta 0 -4.5986176636177e-05 remap units box
  triclinic box = (0.185573 0.171636 -0.0828288) to (20.0644 28.4662 45.9033) with tilt (0 0 0)

# Relax atoms positions

minimize 0 1e-10 1000 10000
  1 neighbor list requests
  update every 1 steps, delay 0 steps, check yes
Step Temp Press CPU Pxx Pyy Pzz Pxy Pxz Pyz KinEng PotEng TotEng Volume Lx Ly Lz Atoms
1001            0    0.3321462            0   0.28235013   0.23884168   0.47524678 -8.1621492e-13 1.4741717e-08 -7.4915871e-11            0   -2296.7029   -2296.7029     25865.51    19.878853    28.294553    45.986131      700
Loop time of 0.040432 on 1 procs for 8 steps with 700 atoms

Minimization stats:
  Stopping criterion = force tolerance
  Energy initial, next-to-last, final =
  Force two-norm initial, final = 8.32536e-05 8.92374e-11
  Force max component initial, final = 7.00268e-06 7.97495e-12
  Final line search alpha, max atom move = 1 7.97495e-12
  Iterations, force evaluations = 8 16

# Obtain new stress tensor

variable tmp equal pxx
variable pxx1 equal -3.75871219709177e-08
variable tmp equal pyy
variable pyy1 equal -4.11869171883192e-08
variable tmp equal pzz
variable pzz1 equal -7.26774885035154e-08
variable tmp equal pxy
variable pxy1 equal -2.9076850486226e-12
variable tmp equal pxz
variable pxz1 equal 9.55741075008015e-09
variable tmp equal pyz
variable pyz1 equal -3.29151881662647e-11

# Compute elastic constant from pressure tensor

variable C1neg equal -4.8269253728647e-06
variable C2neg equal -4.63426793640862e-06
variable C3neg equal -6.90922532412893e-06
variable C4neg equal 4.21399749522776e-09
variable C5neg equal -5.39986693280965e-07
variable C6neg equal -6.76052506508442e-10

# Reset box and simulation parameters

clear
box tilt large
read_restart restart.equil
  triclinic box = (0.185573 0.171636 -0.0828288) to (20.0644 28.4662 45.9033) with tilt (0 0 0)
  700 atoms
include potential.mod
pair_style eam/alloy
pair_coeff * * /users/knc6/Software/jarvis/jarvis/lammps/examples/Al03.eam.alloy  Al
neighbor 1.0 nsq
neigh_modify once no every 1 delay 0 check yes
min_style  cg
min_modify           dmax 0.01 line quadratic
thermo          1
thermo_style custom step temp press cpu pxx pyy pzz pxy pxz pyz ke pe etotal vol lx ly lz atoms
thermo_modify norm no

# Positive deformation

variable delta equal 1e-06*45.986176636177
change_box all z delta 0 4.5986176636177e-05 remap units box
  triclinic box = (0.185573 0.171636 -0.0828288) to (20.0644 28.4662 45.9034) with tilt (0 0 0)

# Relax atoms positions

minimize 0 1e-10 1000 10000
  1 neighbor list requests
  update every 1 steps, delay 0 steps, check yes
Step Temp Press CPU Pxx Pyy Pzz Pxy Pxz Pyz KinEng PotEng TotEng Volume Lx Ly Lz Atoms
1001            0  -0.33214384            0  -0.28234885  -0.23884067  -0.47524199 2.8410583e-13 1.4735236e-08 -7.9816225e-11            0   -2296.7029   -2296.7029    25865.562    19.878853    28.294553    45.986223      700
Loop time of 0.0409069 on 1 procs for 8 steps with 700 atoms

Minimization stats:
  Stopping criterion = force tolerance
  Energy initial, next-to-last, final =
  Force two-norm initial, final = 8.32531e-05 9.06264e-11
  Force max component initial, final = 7.00264e-06 7.78647e-12
  Final line search alpha, max atom move = 1 7.78647e-12
  Iterations, force evaluations = 8 16

# Obtain new stress tensor

variable tmp equal pe
variable e1 equal -2296.70291884604
variable tmp equal press
variable p1 equal -4.7787144535776e-08
variable tmp equal pxx
variable pxx1 equal -3.50976005797086e-08
variable tmp equal pyy
variable pyy1 equal -3.93069026366411e-08
variable tmp equal pzz
variable pzz1 equal -6.89569303909783e-08
variable tmp equal pxy
variable pxy1 equal -5.70661599112649e-12
variable tmp equal pxz
variable pxz1 equal 9.38336628099598e-09
variable tmp equal pyz
variable pyz1 equal -3.15364998465712e-11

# Compute elastic constant from pressure tensor

variable C1pos equal 4.57797323374379e-06
variable C2pos equal 4.44626648124081e-06
variable C3pos equal 6.53716951287522e-06
variable C4pos equal -4.35186632719711e-09
variable C5pos equal 5.57391140189382e-07
variable C6pos equal 9.55945600758831e-10

# Combine positive and negative

variable C13 equal 0.5*(-4.8269253728647e-06+4.57797323374379e-06)
variable C23 equal 0.5*(-4.63426793640862e-06+4.44626648124081e-06)
variable C33 equal 0.5*(-6.90922532412893e-06+6.53716951287522e-06)
variable C43 equal 0.5*(4.21399749522776e-09+-4.35186632719711e-09)
variable C53 equal 0.5*(-5.39986693280965e-07+5.57391140189382e-07)
variable C63 equal 0.5*(-6.76052506508442e-10+9.55945600758831e-10)

# Delete dir to make sure it is not reused

variable dir delete

# uyz Perturbation

variable dir equal 4
include /users/knc6/displace.mod
# NOTE: This script should not need to be
# modified. See in.elastic for more info.
#
# Find which reference length to use

variable len0 equal 45.986176636177

# Reset box and simulation parameters

clear
box tilt large
read_restart restart.equil
  triclinic box = (0.185573 0.171636 -0.0828288) to (20.0644 28.4662 45.9033) with tilt (0 0 0)
  700 atoms
include potential.mod
pair_style eam/alloy
pair_coeff * * /users/knc6/Software/jarvis/jarvis/lammps/examples/Al03.eam.alloy  Al
neighbor 1.0 nsq
neigh_modify once no every 1 delay 0 check yes
min_style  cg
min_modify           dmax 0.01 line quadratic
thermo          1
thermo_style custom step temp press cpu pxx pyy pzz pxy pxz pyz ke pe etotal vol lx ly lz atoms
thermo_modify norm no
# Negative deformation

variable delta equal -1e-06*45.986176636177
change_box all yz delta -4.5986176636177e-05 remap units box
  triclinic box = (0.185573 0.171636 -0.0828288) to (20.0644 28.4662 45.9033) with tilt (0 0 -4.59862e-05)

# Relax atoms positions

minimize 0 1e-10 1000 10000
  1 neighbor list requests
  update every 1 steps, delay 0 steps, check yes
Step Temp Press CPU Pxx Pyy Pzz Pxy Pxz Pyz KinEng PotEng TotEng Volume Lx Ly Lz Atoms
1001            0 2.4909623e-07            0 2.5236279e-07 2.9078477e-07 2.0414112e-07 5.1018754e-13 1.4735158e-08   0.12243188            0   -2296.7029   -2296.7029    25865.536    19.878853    28.294553    45.986177      700
Loop time of 0.011951 on 1 procs for 2 steps with 700 atoms

Minimization stats:
  Stopping criterion = linesearch alpha is zero
  Energy initial, next-to-last, final =
  Force two-norm initial, final = 1.86982e-05 2.23662e-05
  Force max component initial, final = 1.76354e-06 2.02258e-06
  Final line search alpha, max atom move = 0.5 1.01129e-06
  Iterations, force evaluations = 2 4

# Obtain new stress tensor

variable tmp equal pxx
variable pxx1 equal 2.64586667855224e-07
variable tmp equal pyy
variable pyy1 equal 3.33656970098798e-07
variable tmp equal pzz
variable pzz1 equal 2.8681019721837e-07
variable tmp equal pxy
variable pxy1 equal -1.91266600549477e-12
variable tmp equal pxz
variable pxz1 equal 1.38032405615935e-08
variable tmp equal pyz
variable pyz1 equal 0.107020615146851

# Compute elastic constant from pressure tensor

variable C1neg equal 2.53904536097495e-05
variable C2neg equal 3.28501207923031e-05
variable C3neg equal 2.90395432480596e-05
variable C4neg equal 10.7020615221906
variable C5neg equal -1.1540371212963e-07
variable C6neg equal -5.76550602195659e-10

# Reset box and simulation parameters

clear
box tilt large
read_restart restart.equil
  triclinic box = (0.185573 0.171636 -0.0828288) to (20.0644 28.4662 45.9033) with tilt (0 0 0)
  700 atoms
include potential.mod
pair_style eam/alloy
pair_coeff * * /users/knc6/Software/jarvis/jarvis/lammps/examples/Al03.eam.alloy  Al
neighbor 1.0 nsq
neigh_modify once no every 1 delay 0 check yes
min_style  cg
min_modify           dmax 0.01 line quadratic
thermo          1
thermo_style custom step temp press cpu pxx pyy pzz pxy pxz pyz ke pe etotal vol lx ly lz atoms
thermo_modify norm no

# Positive deformation

variable delta equal 1e-06*45.986176636177
change_box all yz delta 4.5986176636177e-05 remap units box
  triclinic box = (0.185573 0.171636 -0.0828288) to (20.0644 28.4662 45.9033) with tilt (0 0 4.59862e-05)

# Relax atoms positions

minimize 0 1e-10 1000 10000
  1 neighbor list requests
  update every 1 steps, delay 0 steps, check yes
Step Temp Press CPU Pxx Pyy Pzz Pxy Pxz Pyz KinEng PotEng TotEng Volume Lx Ly Lz Atoms
1001            0 2.4909517e-07            0 2.5236495e-07 2.9078166e-07 2.0413889e-07 5.6047561e-12 1.4743087e-08  -0.12243188            0   -2296.7029   -2296.7029    25865.536    19.878853    28.294553    45.986177      700
Loop time of 0.0119541 on 1 procs for 2 steps with 700 atoms

Minimization stats:
  Stopping criterion = linesearch alpha is zero
  Energy initial, next-to-last, final =
  Force two-norm initial, final = 1.86982e-05 2.23662e-05
  Force max component initial, final = 1.76354e-06 2.02258e-06
  Final line search alpha, max atom move = 0.5 1.01129e-06
  Iterations, force evaluations = 2 4

# Obtain new stress tensor

variable tmp equal pe
variable e1 equal -2296.70291884539
variable tmp equal press
variable p1 equal 2.94997893977991e-07
variable tmp equal pxx
variable pxx1 equal 2.64572838635286e-07
variable tmp equal pyy
variable pyy1 equal 3.33625562296284e-07
variable tmp equal pzz
variable pzz1 equal 2.86795281002403e-07
variable tmp equal pxy
variable pxy1 equal -8.34524116015425e-12
variable tmp equal pxz
variable pxz1 equal 1.38140434711176e-08
variable tmp equal pyz
variable pyz1 equal -0.107020615189492

# Compute elastic constant from pressure tensor

variable C1pos equal -2.53890706877557e-05
variable C2pos equal -3.28469800120517e-05
variable C3pos equal -2.90380516264629e-05
variable C4pos equal 10.7020615114437
variable C5pos equal 1.1432342117722e-07
variable C6pos equal 1.21980811766161e-09

# Combine positive and negative

variable C14 equal 0.5*(2.53904536097495e-05+-2.53890706877557e-05)
variable C24 equal 0.5*(3.28501207923031e-05+-3.28469800120517e-05)
variable C34 equal 0.5*(2.90395432480596e-05+-2.90380516264629e-05)
variable C44 equal 0.5*(10.7020615221906+10.7020615114437)
variable C54 equal 0.5*(-1.1540371212963e-07+1.1432342117722e-07)
variable C64 equal 0.5*(-5.76550602195659e-10+1.21980811766161e-09)

# Delete dir to make sure it is not reused

variable dir delete

# uxz Perturbation

variable dir equal 5
include /users/knc6/displace.mod
# NOTE: This script should not need to be
# modified. See in.elastic for more info.
#
# Find which reference length to use

variable len0 equal 45.986176636177

# Reset box and simulation parameters

clear
box tilt large
read_restart restart.equil
  triclinic box = (0.185573 0.171636 -0.0828288) to (20.0644 28.4662 45.9033) with tilt (0 0 0)
  700 atoms
include potential.mod
pair_style eam/alloy
pair_coeff * * /users/knc6/Software/jarvis/jarvis/lammps/examples/Al03.eam.alloy  Al
neighbor 1.0 nsq
neigh_modify once no every 1 delay 0 check yes
min_style  cg
min_modify           dmax 0.01 line quadratic
thermo          1
thermo_style custom step temp press cpu pxx pyy pzz pxy pxz pyz ke pe etotal vol lx ly lz atoms
thermo_modify norm no
# Negative deformation

variable delta equal -1e-06*45.986176636177
change_box all xz delta -4.5986176636177e-05 remap units box
  triclinic box = (0.185573 0.171636 -0.0828288) to (20.0644 28.4662 45.9033) with tilt (0 -4.59862e-05 0)

# Relax atoms positions

minimize 0 1e-10 1000 10000
  1 neighbor list requests
  update every 1 steps, delay 0 steps, check yes
Step Temp Press CPU Pxx Pyy Pzz Pxy Pxz Pyz KinEng PotEng TotEng Volume Lx Ly Lz Atoms
1001            0 2.686185e-07            0 2.9030912e-07 2.4683251e-07 2.6871388e-07 1.6491909e-12   0.16522244 -7.3752724e-11            0   -2296.7029   -2296.7029    25865.536    19.878853    28.294553    45.986177      700
Loop time of 0.035969 on 1 procs for 7 steps with 700 atoms

Minimization stats:
  Stopping criterion = linesearch alpha is zero
  Energy initial, next-to-last, final =
  Force two-norm initial, final = 4.14206e-05 3.01197e-05
  Force max component initial, final = 3.97135e-06 2.62806e-06
  Final line search alpha, max atom move = 0.5 1.31403e-06
  Iterations, force evaluations = 7 14

# Obtain new stress tensor

variable tmp equal pxx
variable pxx1 equal 8.04513397820266e-09
variable tmp equal pyy
variable pyy1 equal -5.22896828514274e-09
variable tmp equal pzz
variable pzz1 equal -8.19930981572351e-08
variable tmp equal pxy
variable pxy1 equal 3.29322403013504e-12
variable tmp equal pxz
variable pxz1 equal 0.0608677016482626
variable tmp equal pyz
variable pyz1 equal -3.01982024449566e-11

# Compute elastic constant from pressure tensor

variable C1neg equal -2.63699777952664e-07
variable C2neg equal -1.03847304609098e-06
variable C3neg equal -7.84078628950091e-06
variable C4neg equal 4.48569606735857e-09
variable C5neg equal 6.08676866909849
variable C6neg equal -5.5961598632678e-11

# Reset box and simulation parameters

clear
box tilt large
read_restart restart.equil
  triclinic box = (0.185573 0.171636 -0.0828288) to (20.0644 28.4662 45.9033) with tilt (0 0 0)
  700 atoms
include potential.mod
pair_style eam/alloy
pair_coeff * * /users/knc6/Software/jarvis/jarvis/lammps/examples/Al03.eam.alloy  Al
neighbor 1.0 nsq
neigh_modify once no every 1 delay 0 check yes
min_style  cg
min_modify           dmax 0.01 line quadratic
thermo          1
thermo_style custom step temp press cpu pxx pyy pzz pxy pxz pyz ke pe etotal vol lx ly lz atoms
thermo_modify norm no

# Positive deformation

variable delta equal 1e-06*45.986176636177
change_box all xz delta 4.5986176636177e-05 remap units box
  triclinic box = (0.185573 0.171636 -0.0828288) to (20.0644 28.4662 45.9033) with tilt (0 4.59862e-05 0)

# Relax atoms positions

minimize 0 1e-10 1000 10000
  1 neighbor list requests
  update every 1 steps, delay 0 steps, check yes
Step Temp Press CPU Pxx Pyy Pzz Pxy Pxz Pyz KinEng PotEng TotEng Volume Lx Ly Lz Atoms
1001            0 2.6863411e-07            0 2.903268e-07 2.4685929e-07 2.6871625e-07 1.4957478e-13  -0.16522241 -7.6967507e-11            0   -2296.7029   -2296.7029    25865.536    19.878853    28.294553    45.986177      700
Loop time of 0.0359979 on 1 procs for 7 steps with 700 atoms

Minimization stats:
  Stopping criterion = linesearch alpha is zero
  Energy initial, next-to-last, final =
  Force two-norm initial, final = 4.14206e-05 3.01197e-05
  Force max component initial, final = 3.97135e-06 2.62806e-06
  Final line search alpha, max atom move = 0.5 1.31403e-06
  Iterations, force evaluations = 7 14

# Obtain new stress tensor

variable tmp equal pe
variable e1 equal -2296.70291884583
variable tmp equal press
variable p1 equal -2.63767761409316e-08
variable tmp equal pxx
variable pxx1 equal 8.05982325312486e-09
variable tmp equal pyy
variable pyy1 equal -5.21101383146161e-09
variable tmp equal pzz
variable pzz1 equal -8.1979137844458e-08
variable tmp equal pxy
variable pxy1 equal 7.46154648435712e-13
variable tmp equal pxz
variable pxz1 equal -0.0608677005758897
variable tmp equal pyz
variable pyz1 equal -3.10666387739683e-11

# Compute elastic constant from pressure tensor

variable C1pos equal 2.62230850460444e-07
variable C2pos equal 1.03667760072286e-06
variable C3pos equal 7.83939025822319e-06
variable C4pos equal -4.3988524344574e-09
variable C5pos equal 6.08677155331674
variable C6pos equal 3.10668536802611e-10

# Combine positive and negative

variable C15 equal 0.5*(-2.63699777952664e-07+2.62230850460444e-07)
variable C25 equal 0.5*(-1.03847304609098e-06+1.03667760072286e-06)
variable C35 equal 0.5*(-7.84078628950091e-06+7.83939025822319e-06)
variable C45 equal 0.5*(4.48569606735857e-09+-4.3988524344574e-09)
variable C55 equal 0.5*(6.08676866909849+6.08677155331674)
variable C65 equal 0.5*(-5.5961598632678e-11+3.10668536802611e-10)

# Delete dir to make sure it is not reused

variable dir delete

# uxy Perturbation

variable dir equal 6
include /users/knc6/displace.mod
# NOTE: This script should not need to be
# modified. See in.elastic for more info.
#
# Find which reference length to use

variable len0 equal 28.2945533378165

# Reset box and simulation parameters

clear
box tilt large
read_restart restart.equil
  triclinic box = (0.185573 0.171636 -0.0828288) to (20.0644 28.4662 45.9033) with tilt (0 0 0)
  700 atoms
include potential.mod
pair_style eam/alloy
pair_coeff * * /users/knc6/Software/jarvis/jarvis/lammps/examples/Al03.eam.alloy  Al
neighbor 1.0 nsq
neigh_modify once no every 1 delay 0 check yes
min_style  cg
min_modify           dmax 0.01 line quadratic
thermo          1
thermo_style custom step temp press cpu pxx pyy pzz pxy pxz pyz ke pe etotal vol lx ly lz atoms
thermo_modify norm no
# Negative deformation

variable delta equal -1e-06*28.2945533378165
change_box all xy delta -2.82945533378165e-05 remap units box
  triclinic box = (0.185573 0.171636 -0.0828288) to (20.0644 28.4662 45.9033) with tilt (-2.82946e-05 0 0)

# Relax atoms positions

minimize 0 1e-10 1000 10000
  1 neighbor list requests
  update every 1 steps, delay 0 steps, check yes
Step Temp Press CPU Pxx Pyy Pzz Pxy Pxz Pyz KinEng PotEng TotEng Volume Lx Ly Lz Atoms
1001            0 4.5084805e-07            0 4.1826976e-07 6.3929873e-07 2.9497567e-07   0.14765201 1.4741956e-08 -7.7637692e-11            0   -2296.7029   -2296.7029    25865.536    19.878853    28.294553    45.986177      700
Loop time of 0.007056 on 1 procs for 1 steps with 700 atoms

Minimization stats:
  Stopping criterion = force tolerance
  Energy initial, next-to-last, final =
  Force two-norm initial, final = 8.48865e-11 3.27479e-11
  Force max component initial, final = 5.34087e-12 1.73552e-12
  Final line search alpha, max atom move = 1 1.73552e-12
  Iterations, force evaluations = 1 2

# Obtain new stress tensor

variable tmp equal pxx
variable pxx1 equal 3.88463344682725e-07
variable tmp equal pyy
variable pyy1 equal 6.23797978565358e-07
variable tmp equal pzz
variable pzz1 equal 2.62393720203097e-07
variable tmp equal pxy
variable pxy1 equal 0.147652008816062
variable tmp equal pxz
variable pxz1 equal 1.44716184736193e-08
variable tmp equal pyz
variable pyz1 equal -7.41778081783813e-11

# Compute elastic constant from pressure tensor

variable C1neg equal 3.77781212924996e-05
variable C2neg equal 6.18642216389591e-05
variable C3neg equal 2.65978955465323e-05
variable C4neg equal 8.77354940160998e-11
variable C5neg equal -4.85659209270498e-08
variable C6neg equal 14.7652008812209

# Reset box and simulation parameters

clear
box tilt large
read_restart restart.equil
  triclinic box = (0.185573 0.171636 -0.0828288) to (20.0644 28.4662 45.9033) with tilt (0 0 0)
  700 atoms
include potential.mod
pair_style eam/alloy
pair_coeff * * /users/knc6/Software/jarvis/jarvis/lammps/examples/Al03.eam.alloy  Al
neighbor 1.0 nsq
neigh_modify once no every 1 delay 0 check yes
min_style  cg
min_modify           dmax 0.01 line quadratic
thermo          1
thermo_style custom step temp press cpu pxx pyy pzz pxy pxz pyz ke pe etotal vol lx ly lz atoms
thermo_modify norm no

# Positive deformation

variable delta equal 1e-06*28.2945533378165
change_box all xy delta 2.82945533378165e-05 remap units box
  triclinic box = (0.185573 0.171636 -0.0828288) to (20.0644 28.4662 45.9033) with tilt (2.82946e-05 0 0)

# Relax atoms positions

minimize 0 1e-10 1000 10000
  1 neighbor list requests
  update every 1 steps, delay 0 steps, check yes
Step Temp Press CPU Pxx Pyy Pzz Pxy Pxz Pyz KinEng PotEng TotEng Volume Lx Ly Lz Atoms
1001            0 4.5085181e-07            0 4.1826583e-07 6.3931354e-07 2.9497604e-07  -0.14765201 1.4726487e-08 -7.3964729e-11            0   -2296.7029   -2296.7029    25865.536    19.878853    28.294553    45.986177      700
Loop time of 0.00705314 on 1 procs for 1 steps with 700 atoms

Minimization stats:
  Stopping criterion = force tolerance
  Energy initial, next-to-last, final =
  Force two-norm initial, final = 8.48901e-11 3.2753e-11
  Force max component initial, final = 5.33868e-12 1.73755e-12
  Final line search alpha, max atom move = 1 1.73755e-12
  Iterations, force evaluations = 1 2

# Obtain new stress tensor

variable tmp equal pe
variable e1 equal -2296.70291884488
variable tmp equal press
variable p1 equal 4.24897616696187e-07
variable tmp equal pxx
variable pxx1 equal 3.88476616005928e-07
variable tmp equal pyy
variable pyy1 equal 6.23806896209429e-07
variable tmp equal pzz
variable pzz1 equal 2.62409337873204e-07
variable tmp equal pxy
variable pxy1 equal -0.147652008812865
variable tmp equal pxz
variable pxz1 equal 1.44853922477343e-08
variable tmp equal pyz
variable pyz1 equal -7.30616923469727e-11

# Compute elastic constant from pressure tensor

variable C1pos equal -3.77794484248199e-05
variable C2pos equal -6.18651134033662e-05
variable C3pos equal -2.6599457313543e-05
variable C4pos equal -1.99347077156961e-10
variable C5pos equal 4.71885435155499e-08
variable C6pos equal 14.7652008816718

# Combine positive and negative

variable C16 equal 0.5*(3.77781212924996e-05+-3.77794484248199e-05)
variable C26 equal 0.5*(6.18642216389591e-05+-6.18651134033662e-05)
variable C36 equal 0.5*(2.65978955465323e-05+-2.6599457313543e-05)
variable C46 equal 0.5*(8.77354940160998e-11+-1.99347077156961e-10)
variable C56 equal 0.5*(-4.85659209270498e-08+4.71885435155499e-08)
variable C66 equal 0.5*(14.7652008812209+14.7652008816718)

# Delete dir to make sure it is not reused

variable dir delete

# Output final values

variable C11all equal 38.1061030118237
variable C22all equal 46.5912035154583
variable C33all equal -1.86027905626855e-07

variable C12all equal 0.5*(13.7028505018116+13.7028656782922)
variable C13all equal 0.5*(-1.24476069560455e-07+8.0886204142295e-07)
variable C23all equal 0.5*(-9.40007275839052e-08+-9.30955790399496e-10)

variable C44all equal 10.7020615168171
variable C55all equal 6.08677011120762
variable C66all equal 14.7652008814464

variable C14all equal 0.5*(6.91460996899112e-10+-9.284794027595e-11)
variable C15all equal 0.5*(-7.34463746110001e-10+-3.46625348685055e-08)
variable C16all equal 0.5*(-6.63566160149392e-10+-6.93137195159829e-10)

variable C24all equal 0.5*(1.57039012570103e-09+-2.02520321206845e-10)
variable C25all equal 0.5*(-8.97722684059953e-10+1.0536249436875e-09)
variable C26all equal 0.5*(-4.45882203548183e-10+-3.04221517710358e-10)

variable C34all equal 0.5*(7.45810798349515e-10+-6.8934415984675e-11)
variable C35all equal 0.5*(-6.98015638860147e-10+8.70222345420848e-09)
variable C36all equal 0.5*(-7.8088350534945e-10+1.39946547125194e-10)

variable C45all equal 0.5*(4.3421816450585e-11+-5.40145476205e-10)
variable C46all equal 0.5*(-5.58057915704306e-11+3.21628757732976e-10)
variable C56all equal 0.5*(-6.8868870574995e-10+1.27353469084966e-10)

# For Stillinger-Weber silicon, the analytical results
# are known to be (E. R. Cowley, 1988):
#               C11 = 151.4 GPa
#               C12 = 76.4 GPa
#               C44 = 56.4 GPa

Elastic Constant C11all = 38.1061030118237 GPa
Elastic Constant C22all = 46.5912035154583 GPa
Elastic Constant C33all = -1.86027905626855e-07 GPa

Elastic Constant C12all = 13.7028580900519 GPa
Elastic Constant C13all = 3.42192985931248e-07 GPa
Elastic Constant C23all = -4.74658416871524e-08 GPa

Elastic Constant C44all = 10.7020615168171 GPa
Elastic Constant C55all = 6.08677011120762 GPa
Elastic Constant C66all = 14.7652008814464 GPa

Elastic Constant C14all = 2.99306528311581e-10 GPa
Elastic Constant C15all = -1.76984993073077e-08 GPa
Elastic Constant C16all = -6.78351677654611e-10 GPa

Elastic Constant C24all = 6.83934902247093e-10 GPa
Elastic Constant C25all = 7.79511298137735e-11 GPa
Elastic Constant C26all = -3.7505186062927e-10 GPa

Elastic Constant C34all = 3.3843819118242e-10 GPa
Elastic Constant C35all = 4.00210390767417e-09 GPa
Elastic Constant C36all = -3.20468479112128e-10 GPa

Elastic Constant C45all = -2.48361829877207e-10 GPa
Elastic Constant C46all = 1.32911483081273e-10 GPa
Elastic Constant C56all = -2.80667618332492e-10 GPa
