LAMMPS (13 Jan 2016)
include /users/knc6/inelast.mod
# Compute elastic constant tensor for a crystal
#
# Written by Aidan Thompson (Sandia, athomps@sandia.gov)
#
#  This script uses the following three include files.
#
#   init.mod      (must be modified for different crystal structures)
# 	       	  Define units, deformation parameters and initial
#		  configuration of the atoms and simulation cell.
#
#
#   potential.mod    (must be modified for different pair styles)
# 		     Define pair style and other attributes
#		     not stored in restart file
#
#
#   displace.mod    (displace.mod should not need to be modified)
# 		    Perform positive and negative box displacements
# 		    It uses the resultant changes
#		    in stress to compute one
# 		    row of the elastic stiffness tensor
#
#		    Inputs variables:
#		    	   dir = the Voigt deformation component
#		    		    (1,2,3,4,5,6)
#		    Global constants:
#       	    	   up = the deformation magnitude (strain units)
#       		   cfac = conversion from LAMMPS pressure units to
#               	   output units for elastic constants
#
#
#  To run this on a different system, it should only be necessary to
#  modify the files init.mod and potential.mod. In order to calculate
#  the elastic constants correctly, care must be taken to specify
#  the correct units in init.mod (units, cfac and cunits). It is also
#  important to verify that the minimization of energy w.r.t atom
#  positions in the deformed cell is fully converged.
#  One indication of this is that the elastic constants are insensitive
#  the final max and two-norm forces reported in the log file. If you know
#  that minimization is not required, you can set maxiter = 0.0 in
#  init.mod.
#
#  There are two alternate versions of displace.mod provided.
#  They are displace_restart.mod and displace_reverse.mod.
#  The former resets the box using a restart file while
#  the latter reverses the deformation. Copy whichever
#  one you like best to displace.mod.
#

include init.mod
variable dump_file string "None"
variable up  equal 1.0e-6
variable cfac  equal 1.0e-4
variable cunits  string GPa
variable etol  equal 0
variable ftol  equal 1.0e-10
variable maxiter equal 1000
variable maxeval equal 10000
variable dmax equal 1.0e-2
variable data_file string "data"
units metal
atom_style charge
boundary p p p
atom_modify sort 0 0.0

read_data data
  triclinic box = (0 0 0) to (20.25 29.205 47.1773) with tilt (0 0 0)
  reading atoms ...
  720 atoms

### interactions
mass 1 26.98154
include potential.mod
pair_style eam/alloy
pair_coeff * * /users/knc6/Software/jarvis/jarvis/lammps/examples/Al03.eam.alloy  Al
neighbor 1.0 nsq
neigh_modify once no every 1 delay 0 check yes
min_style  cg
min_modify           dmax 0.01 line quadratic
thermo          1
thermo_style custom step temp press cpu pxx pyy pzz pxy pxz pyz ke pe etotal vol lx ly lz atoms
thermo_modify norm no
#fix 3 all nph aniso 0.0 0.0 1.0
#fix langevin all langevin 0.0 0.0 1.0 12233

#fix 3 all box/relax tri 0.0 vmax 0.001
fix            3 all box/relax aniso 0.0 vmax 0.001
#fix 3 all box/relax  aniso 0.0
#dump            2a all cfg 100 *.cfg mass type xs ys zs  vx vy vz fx fy fz
#dump_modify     2a element  Mo S

#fix 1a all qeq/comb 1 0.0001 file fq.out
#fix             2 all qeq/reax 1 0.0 10.0 1e-6 /scratch/lfs/kamal/JARVIS/All2/ReaxFF/param.qeq
minimize 0 1e-10 1000 10000
  1 neighbor list requests
  update every 1 steps, delay 0 steps, check yes
Step Temp Press CPU Pxx Pyy Pzz Pxy Pxz Pyz KinEng PotEng TotEng Volume Lx Ly Lz Atoms
0            0   -12192.448            0   -14083.901   -12683.203   -9810.2413 -8.6386431e-13 -1.0575166e-11   -27.055791            0   -2352.0769   -2352.0769    27900.652        20.25    29.204965    47.177251      720
Averages over the last 501 of 1001 rows, steps 500 to 1000:
Temp Press Pxx Pyy Pzz Pxy Pxz Pyz KinEng PotEng TotEng Volume Lx Ly Lz Atoms
0 0.0001318 0.000177759 0.000154543 6.30993e-05 3.82823e-13 3.94314e-12 -0.00651448 0 -2359.31 -2359.31 27143.3 19.9281 28.7971 47.2984 720
Loop time of 4.78325 on 1 procs for 1000 steps with 720 atoms

Minimization stats:
  Stopping criterion = max iterations
  Energy initial, next-to-last, final =
  Force two-norm initial, final = 371.681 5.76789e-08
  Force max component initial, final = 245.26 1.93166e-08
  Final line search alpha, max atom move = 1 1.93166e-08
  Iterations, force evaluations = 1000 1889

variable tmp equal pxx
variable pxx0 equal 8.43426273951514e-07
variable tmp equal pyy
variable pyy0 equal -3.51889851112482e-07
variable tmp equal pzz
variable pzz0 equal -1.14312019644286e-06
variable tmp equal pyz
variable pyz0 equal 6.11628019555998e-05
variable tmp equal pxz
variable pxz0 equal 1.38857827523773e-11
variable tmp equal pxy
variable pxy0 equal 5.75685036431056e-12

variable tmp equal lx
variable lx0 equal 19.9281244407239
variable tmp equal ly
variable ly0 equal 28.797138632992
variable tmp equal lz
variable lz0 equal 47.2983727202861

# These formulas define the derivatives w.r.t. strain components
# Constants uses $, variables use v_
variable d1 equal -(v_pxx1-8.43426273951514e-07)/(v_delta/v_len0)*0.0001
variable d2 equal -(v_pyy1--3.51889851112482e-07)/(v_delta/v_len0)*0.0001
variable d3 equal -(v_pzz1--1.14312019644286e-06)/(v_delta/v_len0)*0.0001
variable d4 equal -(v_pyz1-6.11628019555998e-05)/(v_delta/v_len0)*0.0001
variable d5 equal -(v_pxz1-1.38857827523773e-11)/(v_delta/v_len0)*0.0001
variable d6 equal -(v_pxy1-5.75685036431056e-12)/(v_delta/v_len0)*0.0001

# Write restart
unfix 3
minimize 0 1e-10 1000 10000
Step Temp Press CPU Pxx Pyy Pzz Pxy Pxz Pyz KinEng PotEng TotEng Volume Lx Ly Lz Atoms
1000            0 -2.1719706e-07            0 8.4342056e-07 -3.5187139e-07 -1.1431403e-06 3.9659622e-12 1.4817167e-11 6.1162806e-05            0   -2359.3107   -2359.3107    27143.257    19.928124    28.797139    47.298373      720
Loop time of 0.106388 on 1 procs for 21 steps with 720 atoms

Minimization stats:
  Stopping criterion = force tolerance
  Energy initial, next-to-last, final =
  Force two-norm initial, final = 5.20226e-08 8.1014e-11
  Force max component initial, final = 2.91597e-09 7.8529e-12
  Final line search alpha, max atom move = 1 7.8529e-12
  Iterations, force evaluations = 21 42

#fix 1a all qeq/comb 1 0.0001 file fq.out
write_restart restart.equil
write_data data0

# uxx Perturbation

variable dir equal 1
include /users/knc6/displace.mod
# NOTE: This script should not need to be
# modified. See in.elastic for more info.
#
# Find which reference length to use

variable len0 equal 19.9281244407239

# Reset box and simulation parameters

clear
box tilt large
read_restart restart.equil
  triclinic box = (0.160938 0.203913 -0.0605607) to (20.0891 29.0011 47.2378) with tilt (0 0 0)
  720 atoms
include potential.mod
pair_style eam/alloy
pair_coeff * * /users/knc6/Software/jarvis/jarvis/lammps/examples/Al03.eam.alloy  Al
neighbor 1.0 nsq
neigh_modify once no every 1 delay 0 check yes
min_style  cg
min_modify           dmax 0.01 line quadratic
thermo          1
thermo_style custom step temp press cpu pxx pyy pzz pxy pxz pyz ke pe etotal vol lx ly lz atoms
thermo_modify norm no
# Negative deformation

variable delta equal -1e-06*19.9281244407239
change_box all x delta 0 -1.99281244407239e-05 remap units box
  triclinic box = (0.160938 0.203913 -0.0605607) to (20.089 29.0011 47.2378) with tilt (0 0 0)

# Relax atoms positions

minimize 0 1e-10 1000 10000
  1 neighbor list requests
  update every 1 steps, delay 0 steps, check yes
Step Temp Press CPU Pxx Pyy Pzz Pxy Pxz Pyz KinEng PotEng TotEng Volume Lx Ly Lz Atoms
1021            0   0.36796177            0   0.55116737   0.28019394   0.27252401 -9.9010307e-11 -1.9811154e-10 0.0061745609            0   -2359.3107   -2359.3107     27143.23    19.928105    28.797139    47.298373      720
Loop time of 0.152522 on 1 procs for 30 steps with 720 atoms

Minimization stats:
  Stopping criterion = force tolerance
  Energy initial, next-to-last, final =
  Force two-norm initial, final = 5.73537e-05 9.68562e-11
  Force max component initial, final = 5.63115e-06 1.01845e-11
  Final line search alpha, max atom move = 1 1.01845e-11
  Iterations, force evaluations = 30 60

# Obtain new stress tensor

variable tmp equal pxx
variable pxx1 equal 0.373459374848518
variable tmp equal pyy
variable pyy1 equal 0.140133752650739
variable tmp equal pzz
variable pzz1 equal 4.29009625826844e-08
variable tmp equal pxy
variable pxy1 equal -7.30801869112737e-11
variable tmp equal pxz
variable pxz1 equal -1.74788809118424e-10
variable tmp equal pyz
variable pyz1 equal -3.67866239431963e-09

# Compute elastic constant from pressure tensor

variable C1neg equal 37.3458531422244
variable C2neg equal 14.013410454059
variable C3neg equal 0.000118602115902554
variable C4neg equal -0.00611664806179941
variable C5neg equal -1.88674591870801e-08
variable C6neg equal -7.88370372755843e-09

# Reset box and simulation parameters

clear
box tilt large
read_restart restart.equil
  triclinic box = (0.160938 0.203913 -0.0605607) to (20.0891 29.0011 47.2378) with tilt (0 0 0)
  720 atoms
include potential.mod
pair_style eam/alloy
pair_coeff * * /users/knc6/Software/jarvis/jarvis/lammps/examples/Al03.eam.alloy  Al
neighbor 1.0 nsq
neigh_modify once no every 1 delay 0 check yes
min_style  cg
min_modify           dmax 0.01 line quadratic
thermo          1
thermo_style custom step temp press cpu pxx pyy pzz pxy pxz pyz ke pe etotal vol lx ly lz atoms
thermo_modify norm no

# Positive deformation

variable delta equal 1e-06*19.9281244407239
change_box all x delta 0 1.99281244407239e-05 remap units box
  triclinic box = (0.160938 0.203913 -0.0605607) to (20.0891 29.0011 47.2378) with tilt (0 0 0)

# Relax atoms positions

minimize 0 1e-10 1000 10000
  1 neighbor list requests
  update every 1 steps, delay 0 steps, check yes
Step Temp Press CPU Pxx Pyy Pzz Pxy Pxz Pyz KinEng PotEng TotEng Volume Lx Ly Lz Atoms
1021            0  -0.36795874            0  -0.55116198  -0.28019183  -0.27252242 -9.5981678e-11 -1.9637862e-10 -0.0061745687            0   -2359.3107   -2359.3107    27143.284    19.928144    28.797139    47.298373      720
Loop time of 0.151165 on 1 procs for 30 steps with 720 atoms

Minimization stats:
  Stopping criterion = force tolerance
  Energy initial, next-to-last, final =
  Force two-norm initial, final = 5.73535e-05 9.69784e-11
  Force max component initial, final = 5.63113e-06 8.09195e-12
  Final line search alpha, max atom move = 1 8.09195e-12
  Iterations, force evaluations = 30 60

# Obtain new stress tensor

variable tmp equal pe
variable e1 equal -2359.31070704811
variable tmp equal press
variable p1 equal -0.171196267829295
variable tmp equal pxx
variable pxx1 equal -0.373455953559907
variable tmp equal pyy
variable pyy1 equal -0.140132900033102
variable tmp equal pzz
variable pzz1 equal 5.0105124539679e-08
variable tmp equal pxy
variable pxy1 equal -6.74720782904133e-11
variable tmp equal pxz
variable pxz1 equal -1.66021205637337e-10
variable tmp equal pyz
variable pyz1 equal 3.49188002871786e-09

# Compute elastic constant from pressure tensor

variable C1pos equal 37.3456796986181
variable C2pos equal 14.0132548143251
variable C3pos equal -0.000119322532098254
variable C4pos equal 0.00611593100755711
variable C5pos equal 1.79906988389714e-08
variable C6pos equal 7.32289286547239e-09

# Combine positive and negative

variable C11 equal 0.5*(37.3458531422244+37.3456796986181)
variable C21 equal 0.5*(14.013410454059+14.0132548143251)
variable C31 equal 0.5*(0.000118602115902554+-0.000119322532098254)
variable C41 equal 0.5*(-0.00611664806179941+0.00611593100755711)
variable C51 equal 0.5*(-1.88674591870801e-08+1.79906988389714e-08)
variable C61 equal 0.5*(-7.88370372755843e-09+7.32289286547239e-09)

# Delete dir to make sure it is not reused

variable dir delete

# uyy Perturbation

variable dir equal 2
include /users/knc6/displace.mod
# NOTE: This script should not need to be
# modified. See in.elastic for more info.
#
# Find which reference length to use

variable len0 equal 28.797138632992

# Reset box and simulation parameters

clear
box tilt large
read_restart restart.equil
  triclinic box = (0.160938 0.203913 -0.0605607) to (20.0891 29.0011 47.2378) with tilt (0 0 0)
  720 atoms
include potential.mod
pair_style eam/alloy
pair_coeff * * /users/knc6/Software/jarvis/jarvis/lammps/examples/Al03.eam.alloy  Al
neighbor 1.0 nsq
neigh_modify once no every 1 delay 0 check yes
min_style  cg
min_modify           dmax 0.01 line quadratic
thermo          1
thermo_style custom step temp press cpu pxx pyy pzz pxy pxz pyz ke pe etotal vol lx ly lz atoms
thermo_modify norm no
# Negative deformation

variable delta equal -1e-06*28.797138632992
change_box all y delta 0 -2.8797138632992e-05 remap units box
  triclinic box = (0.160938 0.203913 -0.0605607) to (20.0891 29.001 47.2378) with tilt (0 0 0)

# Relax atoms positions

minimize 0 1e-10 1000 10000
  1 neighbor list requests
  update every 1 steps, delay 0 steps, check yes
Step Temp Press CPU Pxx Pyy Pzz Pxy Pxz Pyz KinEng PotEng TotEng Volume Lx Ly Lz Atoms
1021            0   0.36186381            0   0.28019467   0.56782668   0.23757008 -9.5593383e-11 -1.9582281e-10 -0.0095602053            0   -2359.3107   -2359.3107     27143.23    19.928124     28.79711    47.298373      720
Loop time of 0.15304 on 1 procs for 30 steps with 720 atoms

Minimization stats:
  Stopping criterion = force tolerance
  Energy initial, next-to-last, final =
  Force two-norm initial, final = 4.54017e-05 5.20965e-11
  Force max component initial, final = 3.87147e-06 4.01559e-12
  Final line search alpha, max atom move = 1 4.01559e-12
  Iterations, force evaluations = 30 60

# Obtain new stress tensor

variable tmp equal pxx
variable pxx1 equal 0.140134614478665
variable tmp equal pyy
variable pyy1 equal 0.429666017205271
variable tmp equal pzz
variable pzz1 equal 5.46787492758011e-08
variable tmp equal pxy
variable pxy1 equal -1.46246795269068e-11
variable tmp equal pxz
variable pxz1 equal -4.77816395784785e-11
variable tmp equal pyz
variable pyz1 equal -1.83677009144848e-09

# Compute elastic constant from pressure tensor

variable C1neg equal 14.0133771052391
variable C2neg equal 42.9666369095122
variable C3neg equal 0.000119779894571866
variable C4neg equal -0.00611646387256913
variable C5neg equal -6.16674223308558e-09
variable C6neg equal -2.03815298912174e-09

# Reset box and simulation parameters

clear
box tilt large
read_restart restart.equil
  triclinic box = (0.160938 0.203913 -0.0605607) to (20.0891 29.0011 47.2378) with tilt (0 0 0)
  720 atoms
include potential.mod
pair_style eam/alloy
pair_coeff * * /users/knc6/Software/jarvis/jarvis/lammps/examples/Al03.eam.alloy  Al
neighbor 1.0 nsq
neigh_modify once no every 1 delay 0 check yes
min_style  cg
min_modify           dmax 0.01 line quadratic
thermo          1
thermo_style custom step temp press cpu pxx pyy pzz pxy pxz pyz ke pe etotal vol lx ly lz atoms
thermo_modify norm no

# Positive deformation

variable delta equal 1e-06*28.797138632992
change_box all y delta 0 2.8797138632992e-05 remap units box
  triclinic box = (0.160938 0.203913 -0.0605607) to (20.0891 29.0011 47.2378) with tilt (0 0 0)

# Relax atoms positions

minimize 0 1e-10 1000 10000
  1 neighbor list requests
  update every 1 steps, delay 0 steps, check yes
Step Temp Press CPU Pxx Pyy Pzz Pxy Pxz Pyz KinEng PotEng TotEng Volume Lx Ly Lz Atoms
1021            0  -0.36186031            0   -0.2801911  -0.56782081  -0.23756901 -9.9058235e-11 -1.9904662e-10  0.009559774            0   -2359.3107   -2359.3107    27143.284    19.928124    28.797167    47.298373      720
Loop time of 0.152741 on 1 procs for 30 steps with 720 atoms

Minimization stats:
  Stopping criterion = force tolerance
  Energy initial, next-to-last, final =
  Force two-norm initial, final = 4.54016e-05 5.22502e-11
  Force max component initial, final = 3.87146e-06 4.55165e-12
  Final line search alpha, max atom move = 1 4.55165e-12
  Iterations, force evaluations = 30 60

# Obtain new stress tensor

variable tmp equal pe
variable e1 equal -2359.31070704756
variable tmp equal press
variable p1 equal -0.189931080176978
variable tmp equal pxx
variable pxx1 equal -0.140132017301453
variable tmp equal pyy
variable pyy1 equal -0.429661276869682
variable tmp equal pzz
variable pzz1 equal 5.3640201893902e-08
variable tmp equal pxy
variable pxy1 equal -1.43690726720091e-11
variable tmp equal pxz
variable pxz1 equal -4.1359951885655e-11
variable tmp equal pyz
variable pyz1 equal 1.18366610786859e-09

# Compute elastic constant from pressure tensor

variable C1pos equal 14.0132860727727
variable C2pos equal 42.9660924979831
variable C3pos equal -0.000119676039833676
variable C4pos equal 0.00611616182894919
variable C5pos equal 5.52457346380323e-09
variable C6pos equal 2.01259230363197e-09

# Combine positive and negative

variable C12 equal 0.5*(14.0133771052391+14.0132860727727)
variable C22 equal 0.5*(42.9666369095122+42.9660924979831)
variable C32 equal 0.5*(0.000119779894571866+-0.000119676039833676)
variable C42 equal 0.5*(-0.00611646387256913+0.00611616182894919)
variable C52 equal 0.5*(-6.16674223308558e-09+5.52457346380323e-09)
variable C62 equal 0.5*(-2.03815298912174e-09+2.01259230363197e-09)

# Delete dir to make sure it is not reused

variable dir delete

# uzz Perturbation

variable dir equal 3
include /users/knc6/displace.mod
# NOTE: This script should not need to be
# modified. See in.elastic for more info.
#
# Find which reference length to use

variable len0 equal 47.2983727202861

# Reset box and simulation parameters

clear
box tilt large
read_restart restart.equil
  triclinic box = (0.160938 0.203913 -0.0605607) to (20.0891 29.0011 47.2378) with tilt (0 0 0)
  720 atoms
include potential.mod
pair_style eam/alloy
pair_coeff * * /users/knc6/Software/jarvis/jarvis/lammps/examples/Al03.eam.alloy  Al
neighbor 1.0 nsq
neigh_modify once no every 1 delay 0 check yes
min_style  cg
min_modify           dmax 0.01 line quadratic
thermo          1
thermo_style custom step temp press cpu pxx pyy pzz pxy pxz pyz ke pe etotal vol lx ly lz atoms
thermo_modify norm no
# Negative deformation

variable delta equal -1e-06*47.2983727202861
change_box all z delta 0 -4.72983727202861e-05 remap units box
  triclinic box = (0.160938 0.203913 -0.0605607) to (20.0891 29.0011 47.2378) with tilt (0 0 0)

# Relax atoms positions

minimize 0 1e-10 1000 10000
  1 neighbor list requests
  update every 1 steps, delay 0 steps, check yes
Step Temp Press CPU Pxx Pyy Pzz Pxy Pxz Pyz KinEng PotEng TotEng Volume Lx Ly Lz Atoms
1021            0      0.32451            0    0.2725249   0.23757026   0.46343484 -9.8870435e-11 -1.9994667e-10 0.0086165046            0   -2359.3107   -2359.3107     27143.23    19.928124    28.797139    47.298325      720
Loop time of 0.150695 on 1 procs for 30 steps with 720 atoms

Minimization stats:
  Stopping criterion = force tolerance
  Energy initial, next-to-last, final =
  Force two-norm initial, final = 8.19733e-05 9.68247e-11
  Force max component initial, final = 7.11903e-06 7.29355e-12
  Final line search alpha, max atom move = 1 7.29355e-12
  Iterations, force evaluations = 30 60

# Obtain new stress tensor

variable tmp equal pxx
variable pxx1 equal 1.17297630632485e-06
variable tmp equal pyy
variable pyy1 equal 3.06881610770266e-07
variable tmp equal pzz
variable pzz1 equal 1.89931167035718e-07
variable tmp equal pxy
variable pxy1 equal -1.42008458166735e-10
variable tmp equal pxz
variable pxz1 equal -3.26976362070211e-10
variable tmp equal pyz
variable pyz1 equal -1.57016136246444e-09

# Compute elastic constant from pressure tensor

variable C1neg equal 3.29550032373336e-05
variable C2neg equal 6.58771461882748e-05
variable C3neg equal 0.000133305136347858
variable C4neg equal -0.00611643721169623
variable C5neg equal -3.40862144822588e-08
variable C6neg equal -1.47765308531046e-08

# Reset box and simulation parameters

clear
box tilt large
read_restart restart.equil
  triclinic box = (0.160938 0.203913 -0.0605607) to (20.0891 29.0011 47.2378) with tilt (0 0 0)
  720 atoms
include potential.mod
pair_style eam/alloy
pair_coeff * * /users/knc6/Software/jarvis/jarvis/lammps/examples/Al03.eam.alloy  Al
neighbor 1.0 nsq
neigh_modify once no every 1 delay 0 check yes
min_style  cg
min_modify           dmax 0.01 line quadratic
thermo          1
thermo_style custom step temp press cpu pxx pyy pzz pxy pxz pyz ke pe etotal vol lx ly lz atoms
thermo_modify norm no

# Positive deformation

variable delta equal 1e-06*47.2983727202861
change_box all z delta 0 4.72983727202861e-05 remap units box
  triclinic box = (0.160938 0.203913 -0.0605607) to (20.0891 29.0011 47.2379) with tilt (0 0 0)

# Relax atoms positions

minimize 0 1e-10 1000 10000
  1 neighbor list requests
  update every 1 steps, delay 0 steps, check yes
Step Temp Press CPU Pxx Pyy Pzz Pxy Pxz Pyz KinEng PotEng TotEng Volume Lx Ly Lz Atoms
1021            0  -0.32450684            0  -0.27252155  -0.23756882  -0.46343017 -9.7244002e-11 -1.8650735e-10 -0.0086160525            0   -2359.3107   -2359.3107    27143.284    19.928124    28.797139     47.29842      720
Loop time of 0.150328 on 1 procs for 30 steps with 720 atoms

Minimization stats:
  Stopping criterion = force tolerance
  Energy initial, next-to-last, final =
  Force two-norm initial, final = 8.19729e-05 9.82538e-11
  Force max component initial, final = 7.11901e-06 9.05469e-12
  Final line search alpha, max atom move = 1 9.05469e-12
  Iterations, force evaluations = 30 60

# Obtain new stress tensor

variable tmp equal pe
variable e1 equal -2359.3107070513
variable tmp equal press
variable p1 equal 5.7559679960752e-07
variable tmp equal pxx
variable pxx1 equal 1.17943272983029e-06
variable tmp equal pyy
variable pyy1 equal 3.34873049372125e-07
variable tmp equal pzz
variable pzz1 equal 2.12484619620142e-07
variable tmp equal pxy
variable pxy1 equal -1.45437788060716e-10
variable tmp equal pxz
variable pxz1 equal -3.38357512735328e-10
variable tmp equal pyz
variable pyz1 equal -7.87378695153293e-10

# Compute elastic constant from pressure tensor

variable C1pos equal -3.36006455878776e-05
variable C2pos equal -6.86762900484607e-05
variable C3pos equal -0.0001355604816063
variable C4pos equal 0.00611635893342949
variable C5pos equal 3.52243295487705e-08
variable C6pos equal 1.51194638425027e-08

# Combine positive and negative

variable C13 equal 0.5*(3.29550032373336e-05+-3.36006455878776e-05)
variable C23 equal 0.5*(6.58771461882748e-05+-6.86762900484607e-05)
variable C33 equal 0.5*(0.000133305136347858+-0.0001355604816063)
variable C43 equal 0.5*(-0.00611643721169623+0.00611635893342949)
variable C53 equal 0.5*(-3.40862144822588e-08+3.52243295487705e-08)
variable C63 equal 0.5*(-1.47765308531046e-08+1.51194638425027e-08)

# Delete dir to make sure it is not reused

variable dir delete

# uyz Perturbation

variable dir equal 4
include /users/knc6/displace.mod
# NOTE: This script should not need to be
# modified. See in.elastic for more info.
#
# Find which reference length to use

variable len0 equal 47.2983727202861

# Reset box and simulation parameters

clear
box tilt large
read_restart restart.equil
  triclinic box = (0.160938 0.203913 -0.0605607) to (20.0891 29.0011 47.2378) with tilt (0 0 0)
  720 atoms
include potential.mod
pair_style eam/alloy
pair_coeff * * /users/knc6/Software/jarvis/jarvis/lammps/examples/Al03.eam.alloy  Al
neighbor 1.0 nsq
neigh_modify once no every 1 delay 0 check yes
min_style  cg
min_modify           dmax 0.01 line quadratic
thermo          1
thermo_style custom step temp press cpu pxx pyy pzz pxy pxz pyz ke pe etotal vol lx ly lz atoms
thermo_modify norm no
# Negative deformation

variable delta equal -1e-06*47.2983727202861
change_box all yz delta -4.72983727202861e-05 remap units box
  triclinic box = (0.160938 0.203913 -0.0605607) to (20.0891 29.0011 47.2378) with tilt (0 0 -4.72984e-05)

# Relax atoms positions

minimize 0 1e-10 1000 10000
  1 neighbor list requests
  update every 1 steps, delay 0 steps, check yes
Step Temp Press CPU Pxx Pyy Pzz Pxy Pxz Pyz KinEng PotEng TotEng Volume Lx Ly Lz Atoms
1021            0 0.0017442035            0 0.0061757659 -0.0095596432 0.0086164877 -9.6757928e-11 -1.9313822e-10   0.12402928            0   -2359.3107   -2359.3107    27143.257    19.928124    28.797139    47.298373      720
Loop time of 0.145945 on 1 procs for 29 steps with 720 atoms

Minimization stats:
  Stopping criterion = force tolerance
  Energy initial, next-to-last, final =
  Force two-norm initial, final = 2.38938e-05 7.39957e-11
  Force max component initial, final = 2.35282e-06 6.29365e-12
  Final line search alpha, max atom move = 1 6.29365e-12
  Iterations, force evaluations = 29 58

# Obtain new stress tensor

variable tmp equal pxx
variable pxx1 equal 1.0514820441176e-06
variable tmp equal pyy
variable pyy1 equal 2.12320858939816e-07
variable tmp equal pzz
variable pzz1 equal -1.17762283416062e-08
variable tmp equal pxy
variable pxy1 equal 1.74146617827458e-10
variable tmp equal pxz
variable pxz1 equal 3.89520115431177e-10
variable tmp equal pyz
variable pyz1 equal 1.74499606077572e-08

# Compute elastic constant from pressure tensor

variable C1neg equal 2.08055770166086e-05
variable C2neg equal 5.64210710052298e-05
variable C3neg equal 0.000113134396810125
variable C4neg equal -0.00611453519949921
variable C5neg equal 3.756343326788e-08
variable C6neg equal 1.68389767463147e-08

# Reset box and simulation parameters

clear
box tilt large
read_restart restart.equil
  triclinic box = (0.160938 0.203913 -0.0605607) to (20.0891 29.0011 47.2378) with tilt (0 0 0)
  720 atoms
include potential.mod
pair_style eam/alloy
pair_coeff * * /users/knc6/Software/jarvis/jarvis/lammps/examples/Al03.eam.alloy  Al
neighbor 1.0 nsq
neigh_modify once no every 1 delay 0 check yes
min_style  cg
min_modify           dmax 0.01 line quadratic
thermo          1
thermo_style custom step temp press cpu pxx pyy pzz pxy pxz pyz ke pe etotal vol lx ly lz atoms
thermo_modify norm no

# Positive deformation

variable delta equal 1e-06*47.2983727202861
change_box all yz delta 4.72983727202861e-05 remap units box
  triclinic box = (0.160938 0.203913 -0.0605607) to (20.0891 29.0011 47.2378) with tilt (0 0 4.72984e-05)

# Relax atoms positions

minimize 0 1e-10 1000 10000
  1 neighbor list requests
  update every 1 steps, delay 0 steps, check yes
Step Temp Press CPU Pxx Pyy Pzz Pxy Pxz Pyz KinEng PotEng TotEng Volume Lx Ly Lz Atoms
1021            0 -0.0017430424            0 -0.0061733636 0.0095603184 -0.0086160821 -9.3933465e-11 -2.0908296e-10  -0.12402935            0   -2359.3107   -2359.3107    27143.257    19.928124    28.797139    47.298373      720
Loop time of 0.145805 on 1 procs for 29 steps with 720 atoms

Minimization stats:
  Stopping criterion = force tolerance
  Energy initial, next-to-last, final =
  Force two-norm initial, final = 2.38939e-05 7.37794e-11
  Force max component initial, final = 2.35281e-06 5.40348e-12
  Final line search alpha, max atom move = 1 5.40348e-12
  Iterations, force evaluations = 29 58

# Obtain new stress tensor

variable tmp equal pe
variable e1 equal -2359.3107070514
variable tmp equal press
variable p1 equal 4.30933324813691e-07
variable tmp equal pxx
variable pxx1 equal 1.06656433879215e-06
variable tmp equal pyy
variable pyy1 equal 2.13777106163961e-07
variable tmp equal pzz
variable pzz1 equal 1.24585294849656e-08
variable tmp equal pxy
variable pxy1 equal 1.72747902449555e-10
variable tmp equal pxz
variable pxz1 equal 4.00027273541585e-10
variable tmp equal pyz
variable pyz1 equal 1.54026836408048e-08

# Compute elastic constant from pressure tensor

variable C1pos equal -2.23138064840636e-05
variable C2pos equal -5.65666957276443e-05
variable C3pos equal -0.000115557872592783
variable C4pos equal 0.0061147399271959
variable C5pos equal -3.86141490789208e-08
variable C6pos equal -1.66991052085244e-08

# Combine positive and negative

variable C14 equal 0.5*(2.08055770166086e-05+-2.23138064840636e-05)
variable C24 equal 0.5*(5.64210710052298e-05+-5.65666957276443e-05)
variable C34 equal 0.5*(0.000113134396810125+-0.000115557872592783)
variable C44 equal 0.5*(-0.00611453519949921+0.0061147399271959)
variable C54 equal 0.5*(3.756343326788e-08+-3.86141490789208e-08)
variable C64 equal 0.5*(1.68389767463147e-08+-1.66991052085244e-08)

# Delete dir to make sure it is not reused

variable dir delete

# uxz Perturbation

variable dir equal 5
include /users/knc6/displace.mod
# NOTE: This script should not need to be
# modified. See in.elastic for more info.
#
# Find which reference length to use

variable len0 equal 47.2983727202861

# Reset box and simulation parameters

clear
box tilt large
read_restart restart.equil
  triclinic box = (0.160938 0.203913 -0.0605607) to (20.0891 29.0011 47.2378) with tilt (0 0 0)
  720 atoms
include potential.mod
pair_style eam/alloy
pair_coeff * * /users/knc6/Software/jarvis/jarvis/lammps/examples/Al03.eam.alloy  Al
neighbor 1.0 nsq
neigh_modify once no every 1 delay 0 check yes
min_style  cg
min_modify           dmax 0.01 line quadratic
thermo          1
thermo_style custom step temp press cpu pxx pyy pzz pxy pxz pyz ke pe etotal vol lx ly lz atoms
thermo_modify norm no
# Negative deformation

variable delta equal -1e-06*47.2983727202861
change_box all xz delta -4.72983727202861e-05 remap units box
  triclinic box = (0.160938 0.203913 -0.0605607) to (20.0891 29.0011 47.2378) with tilt (0 -4.72984e-05 0)

# Relax atoms positions

minimize 0 1e-10 1000 10000
  1 neighbor list requests
  update every 1 steps, delay 0 steps, check yes
Step Temp Press CPU Pxx Pyy Pzz Pxy Pxz Pyz KinEng PotEng TotEng Volume Lx Ly Lz Atoms
1021            0 6.5528807e-07            0 1.3162809e-06 3.8216538e-07 2.6741792e-07 0.0063913709   0.15865031 -6.7960142e-08            0   -2359.3107   -2359.3107    27143.257    19.928124    28.797139    47.298373      720
Loop time of 0.0857639 on 1 procs for 17 steps with 720 atoms

Minimization stats:
  Stopping criterion = force tolerance
  Energy initial, next-to-last, final =
  Force two-norm initial, final = 3.8178e-05 9.92245e-11
  Force max component initial, final = 3.94339e-06 7.2662e-12
  Final line search alpha, max atom move = 1 7.2662e-12
  Iterations, force evaluations = 17 34

# Obtain new stress tensor

variable tmp equal pxx
variable pxx1 equal 9.27229927161971e-07
variable tmp equal pyy
variable pyy1 equal 9.17181294575133e-08
variable tmp equal pzz
variable pzz1 equal -2.2927684805741e-07
variable tmp equal pxy
variable pxy1 equal -1.34275263228047e-09
variable tmp equal pxz
variable pxz1 equal -1.15286667783747e-09
variable tmp equal pyz
variable pyz1 equal 3.48913833175905e-08

# Compute elastic constant from pressure tensor

variable C1neg equal 8.38036532104571e-06
variable C2neg equal 4.43607980569995e-05
variable C3neg equal 9.1384334838545e-05
variable C4neg equal -0.00611279105722822
variable C5neg equal -1.16675246058985e-07
variable C6neg equal -1.34850948264478e-07

# Reset box and simulation parameters

clear
box tilt large
read_restart restart.equil
  triclinic box = (0.160938 0.203913 -0.0605607) to (20.0891 29.0011 47.2378) with tilt (0 0 0)
  720 atoms
include potential.mod
pair_style eam/alloy
pair_coeff * * /users/knc6/Software/jarvis/jarvis/lammps/examples/Al03.eam.alloy  Al
neighbor 1.0 nsq
neigh_modify once no every 1 delay 0 check yes
min_style  cg
min_modify           dmax 0.01 line quadratic
thermo          1
thermo_style custom step temp press cpu pxx pyy pzz pxy pxz pyz ke pe etotal vol lx ly lz atoms
thermo_modify norm no

# Positive deformation

variable delta equal 1e-06*47.2983727202861
change_box all xz delta 4.72983727202861e-05 remap units box
  triclinic box = (0.160938 0.203913 -0.0605607) to (20.0891 29.0011 47.2378) with tilt (0 4.72984e-05 0)

# Relax atoms positions

minimize 0 1e-10 1000 10000
  1 neighbor list requests
  update every 1 steps, delay 0 steps, check yes
Step Temp Press CPU Pxx Pyy Pzz Pxy Pxz Pyz KinEng PotEng TotEng Volume Lx Ly Lz Atoms
1021            0 6.5529039e-07            0 1.3162909e-06 3.8217067e-07 2.6740959e-07 -0.0063913711  -0.15865031 -6.7956411e-08            0   -2359.3107   -2359.3107    27143.257    19.928124    28.797139    47.298373      720
Loop time of 0.086112 on 1 procs for 17 steps with 720 atoms

Minimization stats:
  Stopping criterion = force tolerance
  Energy initial, next-to-last, final =
  Force two-norm initial, final = 3.8178e-05 9.91053e-11
  Force max component initial, final = 3.94339e-06 6.63959e-12
  Final line search alpha, max atom move = 1 6.63959e-12
  Iterations, force evaluations = 17 34

# Obtain new stress tensor

variable tmp equal pe
variable e1 equal -2359.3107070514
variable tmp equal press
variable p1 equal 2.63233328958329e-07
variable tmp equal pxx
variable pxx1 equal 9.27236474706343e-07
variable tmp equal pyy
variable pyy1 equal 9.17176006898551e-08
variable tmp equal pzz
variable pzz1 equal -2.29254088521211e-07
variable tmp equal pxy
variable pxy1 equal 1.33895951277395e-09
variable tmp equal pxz
variable pxz1 equal 1.15025622030861e-09
variable tmp equal pyz
variable pyz1 equal 3.48931160453815e-08

# Compute elastic constant from pressure tensor

variable C1pos equal -8.3810200754829e-06
variable C2pos equal -4.43607451802337e-05
variable C3pos equal -9.13866107921649e-05
variable C4pos equal 0.00611279088395544
variable C5pos equal -1.13637043755623e-07
variable C6pos equal -1.33320266240964e-07

# Combine positive and negative

variable C15 equal 0.5*(8.38036532104571e-06+-8.3810200754829e-06)
variable C25 equal 0.5*(4.43607980569995e-05+-4.43607451802337e-05)
variable C35 equal 0.5*(9.1384334838545e-05+-9.13866107921649e-05)
variable C45 equal 0.5*(-0.00611279105722822+0.00611279088395544)
variable C55 equal 0.5*(-1.16675246058985e-07+-1.13637043755623e-07)
variable C65 equal 0.5*(-1.34850948264478e-07+-1.33320266240964e-07)

# Delete dir to make sure it is not reused

variable dir delete

# uxy Perturbation

variable dir equal 6
include /users/knc6/displace.mod
# NOTE: This script should not need to be
# modified. See in.elastic for more info.
#
# Find which reference length to use

variable len0 equal 28.797138632992

# Reset box and simulation parameters

clear
box tilt large
read_restart restart.equil
  triclinic box = (0.160938 0.203913 -0.0605607) to (20.0891 29.0011 47.2378) with tilt (0 0 0)
  720 atoms
include potential.mod
pair_style eam/alloy
pair_coeff * * /users/knc6/Software/jarvis/jarvis/lammps/examples/Al03.eam.alloy  Al
neighbor 1.0 nsq
neigh_modify once no every 1 delay 0 check yes
min_style  cg
min_modify           dmax 0.01 line quadratic
thermo          1
thermo_style custom step temp press cpu pxx pyy pzz pxy pxz pyz ke pe etotal vol lx ly lz atoms
thermo_modify norm no
# Negative deformation

variable delta equal -1e-06*28.797138632992
change_box all xy delta -2.8797138632992e-05 remap units box
  triclinic box = (0.160938 0.203913 -0.0605607) to (20.0891 29.0011 47.2378) with tilt (-2.87971e-05 0 0)

# Relax atoms positions

minimize 0 1e-10 1000 10000
  1 neighbor list requests
  update every 1 steps, delay 0 steps, check yes
Step Temp Press CPU Pxx Pyy Pzz Pxy Pxz Pyz KinEng PotEng TotEng Volume Lx Ly Lz Atoms
1021            0  6.89111e-07            0 1.3678032e-06 5.3032426e-07 1.6920549e-07   0.14866417 0.0063913709 6.034491e-08            0   -2359.3107   -2359.3107    27143.257    19.928124    28.797139    47.298373      720
Loop time of 0.091702 on 1 procs for 18 steps with 720 atoms

Minimization stats:
  Stopping criterion = force tolerance
  Energy initial, next-to-last, final =
  Force two-norm initial, final = 1.76853e-05 2.56187e-11
  Force max component initial, final = 2.26793e-06 2.27097e-12
  Final line search alpha, max atom move = 1 2.27097e-12
  Iterations, force evaluations = 18 36

# Obtain new stress tensor

variable tmp equal pxx
variable pxx1 equal 1.22021761866638e-06
variable tmp equal pyy
variable pyy1 equal 4.09145089510231e-07
variable tmp equal pzz
variable pzz1 equal -8.53176569354213e-08
variable tmp equal pxy
variable pxy1 equal 0.144577681252622
variable tmp equal pxz
variable pxz1 equal 6.24635978858617e-11
variable tmp equal pyz
variable pyz1 equal -9.66970031675816e-10

# Compute elastic constant from pressure tensor

variable C1neg equal 3.76791344714866e-05
variable C2neg equal 7.61034940622713e-05
variable C3neg equal 0.000105780253950744
variable C4neg equal -0.00611637689256315
variable C5neg equal 4.85778151334844e-09
variable C6neg equal 14.4577681246865

# Reset box and simulation parameters

clear
box tilt large
read_restart restart.equil
  triclinic box = (0.160938 0.203913 -0.0605607) to (20.0891 29.0011 47.2378) with tilt (0 0 0)
  720 atoms
include potential.mod
pair_style eam/alloy
pair_coeff * * /users/knc6/Software/jarvis/jarvis/lammps/examples/Al03.eam.alloy  Al
neighbor 1.0 nsq
neigh_modify once no every 1 delay 0 check yes
min_style  cg
min_modify           dmax 0.01 line quadratic
thermo          1
thermo_style custom step temp press cpu pxx pyy pzz pxy pxz pyz ke pe etotal vol lx ly lz atoms
thermo_modify norm no

# Positive deformation

variable delta equal 1e-06*28.797138632992
change_box all xy delta 2.8797138632992e-05 remap units box
  triclinic box = (0.160938 0.203913 -0.0605607) to (20.0891 29.0011 47.2378) with tilt (2.87971e-05 0 0)

# Relax atoms positions

minimize 0 1e-10 1000 10000
  1 neighbor list requests
  update every 1 steps, delay 0 steps, check yes
Step Temp Press CPU Pxx Pyy Pzz Pxy Pxz Pyz KinEng PotEng TotEng Volume Lx Ly Lz Atoms
1021            0 6.8910928e-07            0 1.3677863e-06 5.3031979e-07 1.6922178e-07  -0.14866417 -0.0063913713 6.0347163e-08            0   -2359.3107   -2359.3107    27143.257    19.928124    28.797139    47.298373      720
Loop time of 0.0917151 on 1 procs for 18 steps with 720 atoms

Minimization stats:
  Stopping criterion = force tolerance
  Energy initial, next-to-last, final =
  Force two-norm initial, final = 1.76853e-05 2.56328e-11
  Force max component initial, final = 2.26793e-06 2.19127e-12
  Final line search alpha, max atom move = 1 2.19127e-12
  Iterations, force evaluations = 18 36

# Obtain new stress tensor

variable tmp equal pe
variable e1 equal -2359.31070705021
variable tmp equal press
variable p1 equal 5.1465951714604e-07
variable tmp equal pxx
variable pxx1 equal 1.22019753778276e-06
variable tmp equal pyy
variable pyy1 equal 4.09130716122601e-07
variable tmp equal pzz
variable pzz1 equal -8.53497024672418e-08
variable tmp equal pxy
variable pxy1 equal -0.144577681254764
variable tmp equal pxz
variable pxz1 equal -8.55249944752755e-11
variable tmp equal pyz
variable pyz1 equal -9.625103208728e-10

# Compute elastic constant from pressure tensor

variable C1pos equal -3.76771263831246e-05
variable C2pos equal -7.61020567235083e-05
variable C3pos equal -0.000105777049397562
variable C4pos equal 0.00611637644659207
variable C5pos equal 9.94107772276528e-09
variable C6pos equal 14.4577681260521

# Combine positive and negative

variable C16 equal 0.5*(3.76791344714866e-05+-3.76771263831246e-05)
variable C26 equal 0.5*(7.61034940622713e-05+-7.61020567235083e-05)
variable C36 equal 0.5*(0.000105780253950744+-0.000105777049397562)
variable C46 equal 0.5*(-0.00611637689256315+0.00611637644659207)
variable C56 equal 0.5*(4.85778151334844e-09+9.94107772276528e-09)
variable C66 equal 0.5*(14.4577681246865+14.4577681260521)

# Delete dir to make sure it is not reused

variable dir delete

# Output final values

variable C11all equal 37.3457664204212
variable C22all equal 42.9663647037476
variable C33all equal -1.12767262922099e-06

variable C12all equal 0.5*(14.0133315890059+14.0133326341921)
variable C13all equal 0.5*(-3.22821175272002e-07+-3.60208097850004e-07)
variable C23all equal 0.5*(-1.39957193009295e-06+5.19273690949989e-08)

variable C44all equal 1.02363848345204e-07
variable C55all equal -1.15156144907304e-07
variable C66all equal 14.4577681253693

variable C14all equal 0.5*(-7.541147337275e-07+-3.58527121149897e-07)
variable C15all equal 0.5*(-3.27377218594975e-10+-4.38380174054351e-10)
variable C16all equal 0.5*(1.00404418100112e-09+-2.8040543104302e-10)

variable C24all equal 0.5*(-7.28123612072493e-08+-1.51021809969946e-07)
variable C25all equal 0.5*(2.64383829024916e-11+-3.21084384641175e-10)
variable C26all equal 0.5*(7.18669381505875e-10+-1.2780342744885e-11)

variable C34all equal 0.5*(-1.211737891329e-06+-3.91391333700447e-08)
variable C35all equal 0.5*(-1.13797680995195e-09+5.6905753325585e-10)
variable C36all equal 0.5*(1.60227659100147e-09+1.7146649469905e-10)

variable C45all equal 0.5*(-8.6636389902417e-11+-5.25357905520401e-10)
variable C46all equal 0.5*(-2.22985539755083e-10+6.99357688951496e-11)
variable C56all equal 0.5*(7.39942961805686e-09+-1.34085607252721e-07)

# For Stillinger-Weber silicon, the analytical results
# are known to be (E. R. Cowley, 1988):
#               C11 = 151.4 GPa
#               C12 = 76.4 GPa
#               C44 = 56.4 GPa

Elastic Constant C11all = 37.3457664204212 GPa
Elastic Constant C22all = 42.9663647037476 GPa
Elastic Constant C33all = -1.12767262922099e-06 GPa

Elastic Constant C12all = 14.013332111599 GPa
Elastic Constant C13all = -3.41514636561003e-07 GPa
Elastic Constant C23all = -6.73822280498976e-07 GPa

Elastic Constant C44all = 1.02363848345204e-07 GPa
Elastic Constant C55all = -1.15156144907304e-07 GPa
Elastic Constant C66all = 14.4577681253693 GPa

Elastic Constant C14all = -5.56320927438698e-07 GPa
Elastic Constant C15all = -3.82878696324663e-10 GPa
Elastic Constant C16all = 3.6181937497905e-10 GPa

Elastic Constant C24all = -1.11917085588598e-07 GPa
Elastic Constant C25all = -1.47323000869342e-10 GPa
Elastic Constant C26all = 3.52944519380495e-10 GPa

Elastic Constant C34all = -6.25438512349522e-07 GPa
Elastic Constant C35all = -2.8445963834805e-10 GPa
Elastic Constant C36all = 8.8687154285026e-10 GPa

Elastic Constant C45all = -3.05997147711409e-10 GPa
Elastic Constant C46all = -7.65248854299667e-11 GPa
Elastic Constant C56all = -6.33430888173321e-08 GPa
