LAMMPS (13 Jan 2016)
include /users/knc6/inelast.mod
# Compute elastic constant tensor for a crystal
#
# Written by Aidan Thompson (Sandia, athomps@sandia.gov)
#
#  This script uses the following three include files.
#
#   init.mod      (must be modified for different crystal structures)
# 	       	  Define units, deformation parameters and initial
#		  configuration of the atoms and simulation cell.
#
#
#   potential.mod    (must be modified for different pair styles)
# 		     Define pair style and other attributes
#		     not stored in restart file
#
#
#   displace.mod    (displace.mod should not need to be modified)
# 		    Perform positive and negative box displacements
# 		    It uses the resultant changes
#		    in stress to compute one
# 		    row of the elastic stiffness tensor
#
#		    Inputs variables:
#		    	   dir = the Voigt deformation component
#		    		    (1,2,3,4,5,6)
#		    Global constants:
#       	    	   up = the deformation magnitude (strain units)
#       		   cfac = conversion from LAMMPS pressure units to
#               	   output units for elastic constants
#
#
#  To run this on a different system, it should only be necessary to
#  modify the files init.mod and potential.mod. In order to calculate
#  the elastic constants correctly, care must be taken to specify
#  the correct units in init.mod (units, cfac and cunits). It is also
#  important to verify that the minimization of energy w.r.t atom
#  positions in the deformed cell is fully converged.
#  One indication of this is that the elastic constants are insensitive
#  the final max and two-norm forces reported in the log file. If you know
#  that minimization is not required, you can set maxiter = 0.0 in
#  init.mod.
#
#  There are two alternate versions of displace.mod provided.
#  They are displace_restart.mod and displace_reverse.mod.
#  The former resets the box using a restart file while
#  the latter reverses the deformation. Copy whichever
#  one you like best to displace.mod.
#

include init.mod
variable dump_file string "None"
variable up  equal 1.0e-6
variable cfac  equal 1.0e-4
variable cunits  string GPa
variable etol  equal 0
variable ftol  equal 1.0e-10
variable maxiter equal 1000
variable maxeval equal 10000
variable dmax equal 1.0e-2
variable data_file string "data"
units metal
atom_style charge
boundary p p p
atom_modify sort 0 0.0

read_data data
  triclinic box = (0 0 0) to (20.25 27.1682 47.0916) with tilt (0 0 0)
  reading atoms ...
  720 atoms

### interactions
mass 1 26.98154
include potential.mod
pair_style eam/alloy
pair_coeff * * /users/knc6/Software/jarvis/jarvis/lammps/examples/Al03.eam.alloy  Al
neighbor 1.0 nsq
neigh_modify once no every 1 delay 0 check yes
min_style  cg
min_modify           dmax 0.01 line quadratic
thermo          1
thermo_style custom step temp press cpu pxx pyy pzz pxy pxz pyz ke pe etotal vol lx ly lz atoms
thermo_modify norm no
#fix 3 all nph aniso 0.0 0.0 1.0
#fix langevin all langevin 0.0 0.0 1.0 12233

#fix 3 all box/relax tri 0.0 vmax 0.001
fix            3 all box/relax aniso 0.0 vmax 0.001
#fix 3 all box/relax  aniso 0.0
#dump            2a all cfg 100 *.cfg mass type xs ys zs  vx vy vz fx fy fz
#dump_modify     2a element  Mo S

#fix 1a all qeq/comb 1 0.0001 file fq.out
#fix             2 all qeq/reax 1 0.0 10.0 1e-6 /scratch/lfs/kamal/JARVIS/All2/ReaxFF/param.qeq
minimize 0 1e-10 1000 10000
  1 neighbor list requests
  update every 1 steps, delay 0 steps, check yes
Step Temp Press CPU Pxx Pyy Pzz Pxy Pxz Pyz KinEng PotEng TotEng Volume Lx Ly Lz Atoms
0            0   -12287.576            0   -13734.812   -13359.397    -9768.519 -7.4408069e-13 -6.9503315e-12    106.94145            0   -2356.0758   -2356.0758    25907.748        20.25    27.168226    47.091591      720
Averages over the last 501 of 1001 rows, steps 500 to 1000:
Temp Press Pxx Pyy Pzz Pxy Pxz Pyz KinEng PotEng TotEng Volume Lx Ly Lz Atoms
0 -0.00221481 -0.00195078 -0.00205004 -0.00264359 2.65202e-12 -1.76146e-11 0.469835 0 -2362.83 -2362.83 25271.2 19.9672 26.7988 47.2274 720
Loop time of 4.84144 on 1 procs for 1000 steps with 720 atoms

Minimization stats:
  Stopping criterion = max iterations
  Energy initial, next-to-last, final =
  Force two-norm initial, final = 347.808 0.000161244
  Force max component initial, final = 222.097 9.95195e-05
  Final line search alpha, max atom move = 1 9.95195e-05
  Iterations, force evaluations = 1000 1873

variable tmp equal pxx
variable pxx0 equal -0.00439726728477077
variable tmp equal pyy
variable pyy0 equal -0.00622367456896349
variable tmp equal pzz
variable pzz0 equal 0.00190395906657561
variable tmp equal pyz
variable pyz0 equal 0.280113916750316
variable tmp equal pxz
variable pxz0 equal 1.30671992201675e-10
variable tmp equal pxy
variable pxy0 equal 1.58368330845393e-11

variable tmp equal lx
variable lx0 equal 19.9671806241121
variable tmp equal ly
variable ly0 equal 26.7987976004143
variable tmp equal lz
variable lz0 equal 47.2273592886343

# These formulas define the derivatives w.r.t. strain components
# Constants uses $, variables use v_
variable d1 equal -(v_pxx1--0.00439726728477077)/(v_delta/v_len0)*0.0001
variable d2 equal -(v_pyy1--0.00622367456896349)/(v_delta/v_len0)*0.0001
variable d3 equal -(v_pzz1-0.00190395906657561)/(v_delta/v_len0)*0.0001
variable d4 equal -(v_pyz1-0.280113916750316)/(v_delta/v_len0)*0.0001
variable d5 equal -(v_pxz1-1.30671992201675e-10)/(v_delta/v_len0)*0.0001
variable d6 equal -(v_pxy1-1.58368330845393e-11)/(v_delta/v_len0)*0.0001

# Write restart
unfix 3
minimize 0 1e-10 1000 10000
Step Temp Press CPU Pxx Pyy Pzz Pxy Pxz Pyz KinEng PotEng TotEng Volume Lx Ly Lz Atoms
1000            0 -0.0029056609            0 -0.0043972673 -0.0062236746 0.0019039591 1.7420164e-11 1.3391795e-10   0.28011392            0   -2362.8263   -2362.8263    25271.191    19.967181    26.798798    47.227359      720
Loop time of 0.129102 on 1 procs for 25 steps with 720 atoms

Minimization stats:
  Stopping criterion = force tolerance
  Energy initial, next-to-last, final =
  Force two-norm initial, final = 0.000101247 5.47771e-11
  Force max component initial, final = 6.38605e-06 3.91948e-12
  Final line search alpha, max atom move = 1 3.91948e-12
  Iterations, force evaluations = 25 50

#fix 1a all qeq/comb 1 0.0001 file fq.out
write_restart restart.equil
write_data data0

# uxx Perturbation

variable dir equal 1
include /users/knc6/displace.mod
# NOTE: This script should not need to be
# modified. See in.elastic for more info.
#
# Find which reference length to use

variable len0 equal 19.9671806241121

# Reset box and simulation parameters

clear
box tilt large
read_restart restart.equil
  triclinic box = (0.14141 0.184714 -0.067884) to (20.1086 26.9835 47.1595) with tilt (0 0 0)
  720 atoms
include potential.mod
pair_style eam/alloy
pair_coeff * * /users/knc6/Software/jarvis/jarvis/lammps/examples/Al03.eam.alloy  Al
neighbor 1.0 nsq
neigh_modify once no every 1 delay 0 check yes
min_style  cg
min_modify           dmax 0.01 line quadratic
thermo          1
thermo_style custom step temp press cpu pxx pyy pzz pxy pxz pyz ke pe etotal vol lx ly lz atoms
thermo_modify norm no
# Negative deformation

variable delta equal -1e-06*19.9671806241121
change_box all x delta 0 -1.99671806241121e-05 remap units box
  triclinic box = (0.14141 0.184714 -0.067884) to (20.1086 26.9835 47.1595) with tilt (0 0 0)

# Relax atoms positions

minimize 0 1e-10 1000 10000
  1 neighbor list requests
  update every 1 steps, delay 0 steps, check yes
Step Temp Press CPU Pxx Pyy Pzz Pxy Pxz Pyz KinEng PotEng TotEng Volume Lx Ly Lz Atoms
1025            0   0.38850531            0     0.580044   0.29782281   0.28764911 3.912773e-12 -4.3717212e-13   0.00863949            0   -2362.8263   -2362.8263    25271.166    19.967161    26.798798    47.227359      720
Loop time of 0.0842361 on 1 procs for 16 steps with 720 atoms

Minimization stats:
  Stopping criterion = linesearch alpha is zero
  Energy initial, next-to-last, final =
  Force two-norm initial, final = 5.46884e-05 2.14801e-07
  Force max component initial, final = 5.25804e-06 1.42256e-08
  Final line search alpha, max atom move = 0.5 7.11278e-09
  Iterations, force evaluations = 16 32

# Obtain new stress tensor

variable tmp equal pxx
variable pxx1 equal 0.394055476720415
variable tmp equal pyy
variable pyy1 equal 0.144579202246833
variable tmp equal pzz
variable pzz1 equal -6.24268866023249e-05
variable tmp equal pxy
variable pxy1 equal 1.02785490426544e-11
variable tmp equal pxz
variable pxz1 equal 2.54879597320203e-12
variable tmp equal pyz
variable pyz1 equal 0.00130531288505809

# Compute elastic constant from pressure tensor

variable C1neg equal 39.8452744005186
variable C2neg equal 15.0802876815797
variable C3neg equal -0.196638595317793
variable C4neg equal -27.8808603865258
variable C5neg equal -1.28123196228473e-08
variable C6neg equal -5.5582840418849e-10

# Reset box and simulation parameters

clear
box tilt large
read_restart restart.equil
  triclinic box = (0.14141 0.184714 -0.067884) to (20.1086 26.9835 47.1595) with tilt (0 0 0)
  720 atoms
include potential.mod
pair_style eam/alloy
pair_coeff * * /users/knc6/Software/jarvis/jarvis/lammps/examples/Al03.eam.alloy  Al
neighbor 1.0 nsq
neigh_modify once no every 1 delay 0 check yes
min_style  cg
min_modify           dmax 0.01 line quadratic
thermo          1
thermo_style custom step temp press cpu pxx pyy pzz pxy pxz pyz ke pe etotal vol lx ly lz atoms
thermo_modify norm no

# Positive deformation

variable delta equal 1e-06*19.9671806241121
change_box all x delta 0 1.99671806241121e-05 remap units box
  triclinic box = (0.14141 0.184714 -0.067884) to (20.1086 26.9835 47.1595) with tilt (0 0 0)

# Relax atoms positions

minimize 0 1e-10 1000 10000
  1 neighbor list requests
  update every 1 steps, delay 0 steps, check yes
Step Temp Press CPU Pxx Pyy Pzz Pxy Pxz Pyz KinEng PotEng TotEng Volume Lx Ly Lz Atoms
1025            0  -0.40022817            0  -0.60340657   -0.3096306  -0.28764736 -1.0595546e-11 1.7061227e-12 -0.0086396547            0   -2362.8263   -2362.8263    25271.217    19.967201    26.798798    47.227359      720
Loop time of 0.240125 on 1 procs for 47 steps with 720 atoms

Minimization stats:
  Stopping criterion = force tolerance
  Energy initial, next-to-last, final =
  Force two-norm initial, final = 5.46881e-05 8.0054e-11
  Force max component initial, final = 5.25801e-06 4.14499e-12
  Final line search alpha, max atom move = 1 4.14499e-12
  Iterations, force evaluations = 47 93

# Obtain new stress tensor

variable tmp equal pe
variable e1 equal -2362.82627245422
variable tmp equal press
variable p1 equal -0.191311075387786
variable tmp equal pxx
variable pxx1 equal -0.417402077084086
variable tmp equal pyy
variable pyy1 equal -0.156531442240937
variable tmp equal pzz
variable pzz1 equal 2.9316166564025e-07
variable tmp equal pxy
variable pxy1 equal 5.81344280017876e-12
variable tmp equal pxz
variable pxz1 equal -9.24713427493956e-13
variable tmp equal pyz
variable pyz1 equal -4.07960579245321e-07

# Compute elastic constant from pressure tensor

variable C1pos equal 41.3004809799315
variable C2pos equal 15.0307767671974
variable C3pos equal 0.190366590490997
variable C4pos equal 28.0114324710895
variable C5pos equal 1.31596705629169e-08
variable C6pos equal 1.00233902843605e-09

# Combine positive and negative

variable C11 equal 0.5*(39.8452744005186+41.3004809799315)
variable C21 equal 0.5*(15.0802876815797+15.0307767671974)
variable C31 equal 0.5*(-0.196638595317793+0.190366590490997)
variable C41 equal 0.5*(-27.8808603865258+28.0114324710895)
variable C51 equal 0.5*(-1.28123196228473e-08+1.31596705629169e-08)
variable C61 equal 0.5*(-5.5582840418849e-10+1.00233902843605e-09)

# Delete dir to make sure it is not reused

variable dir delete

# uyy Perturbation

variable dir equal 2
include /users/knc6/displace.mod
# NOTE: This script should not need to be
# modified. See in.elastic for more info.
#
# Find which reference length to use

variable len0 equal 26.7987976004143

# Reset box and simulation parameters

clear
box tilt large
read_restart restart.equil
  triclinic box = (0.14141 0.184714 -0.067884) to (20.1086 26.9835 47.1595) with tilt (0 0 0)
  720 atoms
include potential.mod
pair_style eam/alloy
pair_coeff * * /users/knc6/Software/jarvis/jarvis/lammps/examples/Al03.eam.alloy  Al
neighbor 1.0 nsq
neigh_modify once no every 1 delay 0 check yes
min_style  cg
min_modify           dmax 0.01 line quadratic
thermo          1
thermo_style custom step temp press cpu pxx pyy pzz pxy pxz pyz ke pe etotal vol lx ly lz atoms
thermo_modify norm no
# Negative deformation

variable delta equal -1e-06*26.7987976004143
change_box all y delta 0 -2.67987976004143e-05 remap units box
  triclinic box = (0.14141 0.184714 -0.067884) to (20.1086 26.9835 47.1595) with tilt (0 0 0)

# Relax atoms positions

minimize 0 1e-10 1000 10000
  1 neighbor list requests
  update every 1 steps, delay 0 steps, check yes
Step Temp Press CPU Pxx Pyy Pzz Pxy Pxz Pyz KinEng PotEng TotEng Volume Lx Ly Lz Atoms
1025            0   0.38170589            0    0.2920444   0.59120274   0.26187053 -2.9348272e-13 -6.4443021e-12 -0.012413716            0   -2362.8263   -2362.8263    25271.166    19.967181    26.798771    47.227359      720
Loop time of 0.130781 on 1 procs for 25 steps with 720 atoms

Minimization stats:
  Stopping criterion = force tolerance
  Energy initial, next-to-last, final =
  Force two-norm initial, final = 4.15967e-05 8.9244e-12
  Force max component initial, final = 4.55948e-06 6.13919e-13
  Final line search alpha, max atom move = 1 6.13919e-13
  Iterations, force evaluations = 25 50

# Obtain new stress tensor

variable tmp equal pxx
variable pxx1 equal 0.138944426603803
variable tmp equal pyy
variable pyy1 equal 0.444311606646769
variable tmp equal pzz
variable pzz1 equal 2.24415015292991e-08
variable tmp equal pxy
variable pxy1 equal 4.45129207427799e-12
variable tmp equal pxz
variable pxz1 equal 2.46345117599794e-12
variable tmp equal pyz
variable pyz1 equal -2.70408340422537e-10

# Compute elastic constant from pressure tensor

variable C1neg equal 14.3341693888574
variable C2neg equal 45.0535281215733
variable C3neg equal -0.190393662507408
variable C4neg equal -28.0113917020724
variable C5neg equal -1.28208541025677e-08
variable C6neg equal -1.13855410102613e-09

# Reset box and simulation parameters

clear
box tilt large
read_restart restart.equil
  triclinic box = (0.14141 0.184714 -0.067884) to (20.1086 26.9835 47.1595) with tilt (0 0 0)
  720 atoms
include potential.mod
pair_style eam/alloy
pair_coeff * * /users/knc6/Software/jarvis/jarvis/lammps/examples/Al03.eam.alloy  Al
neighbor 1.0 nsq
neigh_modify once no every 1 delay 0 check yes
min_style  cg
min_modify           dmax 0.01 line quadratic
thermo          1
thermo_style custom step temp press cpu pxx pyy pzz pxy pxz pyz ke pe etotal vol lx ly lz atoms
thermo_modify norm no

# Positive deformation

variable delta equal 1e-06*26.7987976004143
change_box all y delta 0 2.67987976004143e-05 remap units box
  triclinic box = (0.14141 0.184714 -0.067884) to (20.1086 26.9835 47.1595) with tilt (0 0 0)

# Relax atoms positions

minimize 0 1e-10 1000 10000
  1 neighbor list requests
  update every 1 steps, delay 0 steps, check yes
Step Temp Press CPU Pxx Pyy Pzz Pxy Pxz Pyz KinEng PotEng TotEng Volume Lx Ly Lz Atoms
1025            0  -0.39342855            0    -0.315409   -0.6030074  -0.26186924 -4.7641768e-12 -5.4758036e-12  0.012413043            0   -2362.8263   -2362.8263    25271.217    19.967181    26.798824    47.227359      720
Loop time of 0.130116 on 1 procs for 25 steps with 720 atoms

Minimization stats:
  Stopping criterion = force tolerance
  Energy initial, next-to-last, final =
  Force two-norm initial, final = 4.15966e-05 7.83865e-12
  Force max component initial, final = 4.55946e-06 5.4563e-13
  Final line search alpha, max atom move = 1 5.4563e-13
  Iterations, force evaluations = 25 50

# Obtain new stress tensor

variable tmp equal pe
variable e1 equal -2362.82627245394
variable tmp equal press
variable p1 equal -0.206142503828107
variable tmp equal pxx
variable pxx1 equal -0.162309887353119
variable tmp equal pyy
variable pyy1 equal -0.456117643400689
variable tmp equal pzz
variable pzz1 equal 1.92694854668062e-08
variable tmp equal pxy
variable pxy1 equal -4.58078484402364e-12
variable tmp equal pxz
variable pxz1 equal 4.93074180480929e-12
variable tmp equal pyz
variable pyz1 equal 1.72170462775311e-11

# Compute elastic constant from pressure tensor

variable C1pos equal 15.7912620068348
variable C2pos equal 44.9893968831726
variable C3pos equal 0.190393979709014
variable C4pos equal 28.0113916733099
variable C5pos equal 1.25741250396866e-08
variable C6pos equal 2.04176179285629e-09

# Combine positive and negative

variable C12 equal 0.5*(14.3341693888574+15.7912620068348)
variable C22 equal 0.5*(45.0535281215733+44.9893968831726)
variable C32 equal 0.5*(-0.190393662507408+0.190393979709014)
variable C42 equal 0.5*(-28.0113917020724+28.0113916733099)
variable C52 equal 0.5*(-1.28208541025677e-08+1.25741250396866e-08)
variable C62 equal 0.5*(-1.13855410102613e-09+2.04176179285629e-09)

# Delete dir to make sure it is not reused

variable dir delete

# uzz Perturbation

variable dir equal 3
include /users/knc6/displace.mod
# NOTE: This script should not need to be
# modified. See in.elastic for more info.
#
# Find which reference length to use

variable len0 equal 47.2273592886343

# Reset box and simulation parameters

clear
box tilt large
read_restart restart.equil
  triclinic box = (0.14141 0.184714 -0.067884) to (20.1086 26.9835 47.1595) with tilt (0 0 0)
  720 atoms
include potential.mod
pair_style eam/alloy
pair_coeff * * /users/knc6/Software/jarvis/jarvis/lammps/examples/Al03.eam.alloy  Al
neighbor 1.0 nsq
neigh_modify once no every 1 delay 0 check yes
min_style  cg
min_modify           dmax 0.01 line quadratic
thermo          1
thermo_style custom step temp press cpu pxx pyy pzz pxy pxz pyz ke pe etotal vol lx ly lz atoms
thermo_modify norm no
# Negative deformation

variable delta equal -1e-06*47.2273592886343
change_box all z delta 0 -4.72273592886343e-05 remap units box
  triclinic box = (0.14141 0.184714 -0.067884) to (20.1086 26.9835 47.1594) with tilt (0 0 0)

# Relax atoms positions

minimize 0 1e-10 1000 10000
  1 neighbor list requests
  update every 1 steps, delay 0 steps, check yes
Step Temp Press CPU Pxx Pyy Pzz Pxy Pxz Pyz KinEng PotEng TotEng Volume Lx Ly Lz Atoms
1025            0   0.34289967            0   0.27596584   0.25596571   0.49676746 -3.4153316e-12 -6.5200786e-12  0.011885291            0   -2362.8263   -2362.8263    25271.166    19.967181    26.798798    47.227312      720
Loop time of 0.124567 on 1 procs for 24 steps with 720 atoms

Minimization stats:
  Stopping criterion = force tolerance
  Energy initial, next-to-last, final =
  Force two-norm initial, final = 7.62135e-05 7.44031e-11
  Force max component initial, final = 6.64423e-06 2.73551e-12
  Final line search alpha, max atom move = 1 2.73551e-12
  Iterations, force evaluations = 24 48

# Obtain new stress tensor

variable tmp equal pxx
variable pxx1 equal -0.0116828346231144
variable tmp equal pyy
variable pyy1 equal -0.00590457626122896
variable tmp equal pzz
variable pzz1 equal 4.6717192967318e-07
variable tmp equal pxy
variable pxy1 equal -9.50934606372989e-12
variable tmp equal pxz
variable pxz1 equal 7.49450497509726e-12
variable tmp equal pyz
variable pyz1 equal 2.67178932910762e-08

# Compute elastic constant from pressure tensor

variable C1neg equal -0.728556733834363
variable C2neg equal 0.031909830773453
variable C3neg equal -0.190349189464594
variable C4neg equal -28.0113890032423
variable C5neg equal -1.23177487226578e-08
variable C6neg equal -2.53461791482692e-09

# Reset box and simulation parameters

clear
box tilt large
read_restart restart.equil
  triclinic box = (0.14141 0.184714 -0.067884) to (20.1086 26.9835 47.1595) with tilt (0 0 0)
  720 atoms
include potential.mod
pair_style eam/alloy
pair_coeff * * /users/knc6/Software/jarvis/jarvis/lammps/examples/Al03.eam.alloy  Al
neighbor 1.0 nsq
neigh_modify once no every 1 delay 0 check yes
min_style  cg
min_modify           dmax 0.01 line quadratic
thermo          1
thermo_style custom step temp press cpu pxx pyy pzz pxy pxz pyz ke pe etotal vol lx ly lz atoms
thermo_modify norm no

# Positive deformation

variable delta equal 1e-06*47.2273592886343
change_box all z delta 0 4.72273592886343e-05 remap units box
  triclinic box = (0.14141 0.184714 -0.067884) to (20.1086 26.9835 47.1595) with tilt (0 0 0)

# Relax atoms positions

minimize 0 1e-10 1000 10000
  1 neighbor list requests
  update every 1 steps, delay 0 steps, check yes
Step Temp Press CPU Pxx Pyy Pzz Pxy Pxz Pyz KinEng PotEng TotEng Volume Lx Ly Lz Atoms
1025            0  -0.35462253            0  -0.29933061  -0.26777404  -0.49676295 -1.4728602e-11 -4.6732782e-12  -0.01188481            0   -2362.8263   -2362.8263    25271.217    19.967181    26.798798    47.227407      720
Loop time of 0.124542 on 1 procs for 24 steps with 720 atoms

Minimization stats:
  Stopping criterion = force tolerance
  Energy initial, next-to-last, final =
  Force two-norm initial, final = 7.62131e-05 7.46242e-11
  Force max component initial, final = 6.6442e-06 3.18294e-12
  Final line search alpha, max atom move = 1 3.18294e-12
  Iterations, force evaluations = 24 48

# Obtain new stress tensor

variable tmp equal pe
variable e1 equal -2362.82627245729
variable tmp equal press
variable p1 equal -0.00586230430659702
variable tmp equal pxx
variable pxx1 equal -0.011682818874011
variable tmp equal pyy
variable pyy1 equal -0.00590456183812916
variable tmp equal pzz
variable pzz1 equal 4.67792349083199e-07
variable tmp equal pxy
variable pxy1 equal -2.33966354659761e-12
variable tmp equal pxz
variable pxz1 equal 1.11115184356053e-11
variable tmp equal pyz
variable pyz1 equal -3.13150271945602e-08

# Compute elastic constant from pressure tensor

variable C1pos equal 0.728555158924023
variable C2pos equal -0.031911273083433
variable C3pos equal 0.190349127422653
variable C4pos equal 28.0113948065343
variable C5pos equal 1.1956047376607e-08
variable C6pos equal 1.81764966311369e-09

# Combine positive and negative

variable C13 equal 0.5*(-0.728556733834363+0.728555158924023)
variable C23 equal 0.5*(0.031909830773453+-0.031911273083433)
variable C33 equal 0.5*(-0.190349189464594+0.190349127422653)
variable C43 equal 0.5*(-28.0113890032423+28.0113948065343)
variable C53 equal 0.5*(-1.23177487226578e-08+1.1956047376607e-08)
variable C63 equal 0.5*(-2.53461791482692e-09+1.81764966311369e-09)

# Delete dir to make sure it is not reused

variable dir delete

# uyz Perturbation

variable dir equal 4
include /users/knc6/displace.mod
# NOTE: This script should not need to be
# modified. See in.elastic for more info.
#
# Find which reference length to use

variable len0 equal 47.2273592886343

# Reset box and simulation parameters

clear
box tilt large
read_restart restart.equil
  triclinic box = (0.14141 0.184714 -0.067884) to (20.1086 26.9835 47.1595) with tilt (0 0 0)
  720 atoms
include potential.mod
pair_style eam/alloy
pair_coeff * * /users/knc6/Software/jarvis/jarvis/lammps/examples/Al03.eam.alloy  Al
neighbor 1.0 nsq
neigh_modify once no every 1 delay 0 check yes
min_style  cg
min_modify           dmax 0.01 line quadratic
thermo          1
thermo_style custom step temp press cpu pxx pyy pzz pxy pxz pyz ke pe etotal vol lx ly lz atoms
thermo_modify norm no
# Negative deformation

variable delta equal -1e-06*47.2273592886343
change_box all yz delta -4.72273592886343e-05 remap units box
  triclinic box = (0.14141 0.184714 -0.067884) to (20.1086 26.9835 47.1595) with tilt (0 0 -4.72274e-05)

# Relax atoms positions

minimize 0 1e-10 1000 10000
  1 neighbor list requests
  update every 1 steps, delay 0 steps, check yes
Step Temp Press CPU Pxx Pyy Pzz Pxy Pxz Pyz KinEng PotEng TotEng Volume Lx Ly Lz Atoms
1025            0 -0.0031586802            0 -0.0030433816 -0.018318038  0.011885379 -8.3089566e-12 -4.795361e-12     0.139342            0   -2362.8263   -2362.8263    25271.191    19.967181    26.798798    47.227359      720
Loop time of 0.124407 on 1 procs for 24 steps with 720 atoms

Minimization stats:
  Stopping criterion = force tolerance
  Energy initial, next-to-last, final =
  Force two-norm initial, final = 2.74574e-05 5.06923e-11
  Force max component initial, final = 2.9134e-06 2.93175e-12
  Final line search alpha, max atom move = 1 2.93175e-12
  Iterations, force evaluations = 24 48

# Obtain new stress tensor

variable tmp equal pxx
variable pxx1 equal -0.0116830925723735
variable tmp equal pyy
variable pyy1 equal -0.00590482021254434
variable tmp equal pzz
variable pzz1 equal -1.06817529347329e-09
variable tmp equal pxy
variable pxy1 equal -6.86942445243213e-12
variable tmp equal pxz
variable pxz1 equal 4.5168908712128e-12
variable tmp equal pyz
variable pyz1 equal -7.977216362386e-09

# Compute elastic constant from pressure tensor

variable C1neg equal -0.728582528760273
variable C2neg equal 0.0318854356419151
variable C3neg equal -0.19039601347509
variable C4neg equal -28.0113924727532
variable C5neg equal -1.26155101330462e-08
variable C6neg equal -2.27062575369714e-09

# Reset box and simulation parameters

clear
box tilt large
read_restart restart.equil
  triclinic box = (0.14141 0.184714 -0.067884) to (20.1086 26.9835 47.1595) with tilt (0 0 0)
  720 atoms
include potential.mod
pair_style eam/alloy
pair_coeff * * /users/knc6/Software/jarvis/jarvis/lammps/examples/Al03.eam.alloy  Al
neighbor 1.0 nsq
neigh_modify once no every 1 delay 0 check yes
min_style  cg
min_modify           dmax 0.01 line quadratic
thermo          1
thermo_style custom step temp press cpu pxx pyy pzz pxy pxz pyz ke pe etotal vol lx ly lz atoms
thermo_modify norm no

# Positive deformation

variable delta equal 1e-06*47.2273592886343
change_box all yz delta 4.72273592886343e-05 remap units box
  triclinic box = (0.14141 0.184714 -0.067884) to (20.1086 26.9835 47.1595) with tilt (0 0 4.72274e-05)

# Relax atoms positions

minimize 0 1e-10 1000 10000
  1 neighbor list requests
  update every 1 steps, delay 0 steps, check yes
Step Temp Press CPU Pxx Pyy Pzz Pxy Pxz Pyz KinEng PotEng TotEng Volume Lx Ly Lz Atoms
1025            0 -0.0085661756            0 -0.020322526  0.006508721 -0.011884721 1.8058215e-12 -6.4265888e-12  -0.13934217            0   -2362.8263   -2362.8263    25271.191    19.967181    26.798798    47.227359      720
Loop time of 0.124614 on 1 procs for 24 steps with 720 atoms

Minimization stats:
  Stopping criterion = force tolerance
  Energy initial, next-to-last, final =
  Force two-norm initial, final = 2.74574e-05 5.07534e-11
  Force max component initial, final = 2.9134e-06 3.36614e-12
  Final line search alpha, max atom move = 1 3.36614e-12
  Iterations, force evaluations = 24 48

# Obtain new stress tensor

variable tmp equal pe
variable e1 equal -2362.82627245745
variable tmp equal press
variable p1 equal -0.00586263602333815
variable tmp equal pxx
variable pxx1 equal -0.0116830938892867
variable tmp equal pyy
variable pyy1 equal -0.00590481600495782
variable tmp equal pzz
variable pzz1 equal 1.82423001835652e-09
variable tmp equal pxy
variable pxy1 equal 4.81565235286972e-12
variable tmp equal pxz
variable pxz1 equal 1.50640015249578e-12
variable tmp equal pyz
variable pyz1 equal -7.96852626950689e-09

# Compute elastic constant from pressure tensor

variable C1pos equal 0.728582660451593
variable C2pos equal -0.031885856400567
variable C3pos equal 0.190395724234559
variable C4pos equal 28.0113924718842
variable C5pos equal 1.29165592049179e-08
variable C6pos equal 1.10211807316696e-09

# Combine positive and negative

variable C14 equal 0.5*(-0.728582528760273+0.728582660451593)
variable C24 equal 0.5*(0.0318854356419151+-0.031885856400567)
variable C34 equal 0.5*(-0.19039601347509+0.190395724234559)
variable C44 equal 0.5*(-28.0113924727532+28.0113924718842)
variable C54 equal 0.5*(-1.26155101330462e-08+1.29165592049179e-08)
variable C64 equal 0.5*(-2.27062575369714e-09+1.10211807316696e-09)

# Delete dir to make sure it is not reused

variable dir delete

# uxz Perturbation

variable dir equal 5
include /users/knc6/displace.mod
# NOTE: This script should not need to be
# modified. See in.elastic for more info.
#
# Find which reference length to use

variable len0 equal 47.2273592886343

# Reset box and simulation parameters

clear
box tilt large
read_restart restart.equil
  triclinic box = (0.14141 0.184714 -0.067884) to (20.1086 26.9835 47.1595) with tilt (0 0 0)
  720 atoms
include potential.mod
pair_style eam/alloy
pair_coeff * * /users/knc6/Software/jarvis/jarvis/lammps/examples/Al03.eam.alloy  Al
neighbor 1.0 nsq
neigh_modify once no every 1 delay 0 check yes
min_style  cg
min_modify           dmax 0.01 line quadratic
thermo          1
thermo_style custom step temp press cpu pxx pyy pzz pxy pxz pyz ke pe etotal vol lx ly lz atoms
thermo_modify norm no
# Negative deformation

variable delta equal -1e-06*47.2273592886343
change_box all xz delta -4.72273592886343e-05 remap units box
  triclinic box = (0.14141 0.184714 -0.067884) to (20.1086 26.9835 47.1595) with tilt (0 -4.72274e-05 0)

# Relax atoms positions

minimize 0 1e-10 1000 10000
  1 neighbor list requests
  update every 1 steps, delay 0 steps, check yes
Step Temp Press CPU Pxx Pyy Pzz Pxy Pxz Pyz KinEng PotEng TotEng Volume Lx Ly Lz Atoms
1025            0 -0.005862355            0  -0.01168278 -0.0059046491 3.6390241e-07 0.0090325385   0.16528624 -1.714515e-07            0   -2362.8263   -2362.8263    25271.191    19.967181    26.798798    47.227359      720
Loop time of 0.068547 on 1 procs for 13 steps with 720 atoms

Minimization stats:
  Stopping criterion = force tolerance
  Energy initial, next-to-last, final =
  Force two-norm initial, final = 3.45712e-05 7.19053e-11
  Force max component initial, final = 3.59166e-06 5.41817e-12
  Final line search alpha, max atom move = 1 5.41817e-12
  Iterations, force evaluations = 13 26

# Obtain new stress tensor

variable tmp equal pxx
variable pxx1 equal -0.0116833204407574
variable tmp equal pyy
variable pyy1 equal -0.00590503410550861
variable tmp equal pzz
variable pzz1 equal -4.16396443554145e-07
variable tmp equal pxy
variable pxy1 equal -3.13751796381687e-12
variable tmp equal pxz
variable pxz1 equal 5.38562525133723e-12
variable tmp equal pyz
variable pyz1 equal 2.87929129141879e-08

# Compute elastic constant from pressure tensor

variable C1neg equal -0.728605315598663
variable C2neg equal 0.0318640463454881
variable C3neg equal -0.190437546301916
variable C4neg equal -28.0113887957403
variable C5neg equal -1.25286366950338e-08
variable C6neg equal -1.89743510483562e-09

# Reset box and simulation parameters

clear
box tilt large
read_restart restart.equil
  triclinic box = (0.14141 0.184714 -0.067884) to (20.1086 26.9835 47.1595) with tilt (0 0 0)
  720 atoms
include potential.mod
pair_style eam/alloy
pair_coeff * * /users/knc6/Software/jarvis/jarvis/lammps/examples/Al03.eam.alloy  Al
neighbor 1.0 nsq
neigh_modify once no every 1 delay 0 check yes
min_style  cg
min_modify           dmax 0.01 line quadratic
thermo          1
thermo_style custom step temp press cpu pxx pyy pzz pxy pxz pyz ke pe etotal vol lx ly lz atoms
thermo_modify norm no

# Positive deformation

variable delta equal 1e-06*47.2273592886343
change_box all xz delta 4.72273592886343e-05 remap units box
  triclinic box = (0.14141 0.184714 -0.067884) to (20.1086 26.9835 47.1595) with tilt (0 4.72274e-05 0)

# Relax atoms positions

minimize 0 1e-10 1000 10000
  1 neighbor list requests
  update every 1 steps, delay 0 steps, check yes
Step Temp Press CPU Pxx Pyy Pzz Pxy Pxz Pyz KinEng PotEng TotEng Volume Lx Ly Lz Atoms
1025            0 -0.005862355            0  -0.01168278 -0.0059046491 3.6390576e-07 -0.0090325385  -0.16528624 -1.7145054e-07            0   -2362.8263   -2362.8263    25271.191    19.967181    26.798798    47.227359      720
Loop time of 0.0685289 on 1 procs for 13 steps with 720 atoms

Minimization stats:
  Stopping criterion = force tolerance
  Energy initial, next-to-last, final =
  Force two-norm initial, final = 3.45712e-05 7.19519e-11
  Force max component initial, final = 3.59166e-06 5.45812e-12
  Final line search alpha, max atom move = 1 5.45812e-12
  Iterations, force evaluations = 13 26

# Obtain new stress tensor

variable tmp equal pe
variable e1 equal -2362.82627245734
variable tmp equal press
variable p1 equal -0.00586292364477663
variable tmp equal pxx
variable pxx1 equal -0.011683320434503
variable tmp equal pyy
variable pyy1 equal -0.0059050341020829
variable tmp equal pzz
variable pzz1 equal -4.16397743961198e-07
variable tmp equal pxy
variable pxy1 equal 8.6245450506364e-12
variable tmp equal pxz
variable pxz1 equal -6.01042332875042e-13
variable tmp equal pyz
variable pyz1 equal 2.88001612985291e-08

# Compute elastic constant from pressure tensor

variable C1pos equal 0.728605314973223
variable C2pos equal -0.031864046688059
variable C3pos equal 0.190437546431957
variable C4pos equal 28.0113887950155
variable C5pos equal 1.3127303453455e-08
variable C6pos equal 7.2122880339029e-10

# Combine positive and negative

variable C15 equal 0.5*(-0.728605315598663+0.728605314973223)
variable C25 equal 0.5*(0.0318640463454881+-0.031864046688059)
variable C35 equal 0.5*(-0.190437546301916+0.190437546431957)
variable C45 equal 0.5*(-28.0113887957403+28.0113887950155)
variable C55 equal 0.5*(-1.25286366950338e-08+1.3127303453455e-08)
variable C65 equal 0.5*(-1.89743510483562e-09+7.2122880339029e-10)

# Delete dir to make sure it is not reused

variable dir delete

# uxy Perturbation

variable dir equal 6
include /users/knc6/displace.mod
# NOTE: This script should not need to be
# modified. See in.elastic for more info.
#
# Find which reference length to use

variable len0 equal 26.7987976004143

# Reset box and simulation parameters

clear
box tilt large
read_restart restart.equil
  triclinic box = (0.14141 0.184714 -0.067884) to (20.1086 26.9835 47.1595) with tilt (0 0 0)
  720 atoms
include potential.mod
pair_style eam/alloy
pair_coeff * * /users/knc6/Software/jarvis/jarvis/lammps/examples/Al03.eam.alloy  Al
neighbor 1.0 nsq
neigh_modify once no every 1 delay 0 check yes
min_style  cg
min_modify           dmax 0.01 line quadratic
thermo          1
thermo_style custom step temp press cpu pxx pyy pzz pxy pxz pyz ke pe etotal vol lx ly lz atoms
thermo_modify norm no
# Negative deformation

variable delta equal -1e-06*26.7987976004143
change_box all xy delta -2.67987976004143e-05 remap units box
  triclinic box = (0.14141 0.184714 -0.067884) to (20.1086 26.9835 47.1595) with tilt (-2.67988e-05 0 0)

# Relax atoms positions

minimize 0 1e-10 1000 10000
  1 neighbor list requests
  update every 1 steps, delay 0 steps, check yes
Step Temp Press CPU Pxx Pyy Pzz Pxy Pxz Pyz KinEng PotEng TotEng Volume Lx Ly Lz Atoms
1025            0 -0.0058623408            0 -0.011682754 -0.0059044373 1.6941763e-07   0.16355649 0.0090325385 2.4261479e-08            0   -2362.8263   -2362.8263    25271.191    19.967181    26.798798    47.227359      720
Loop time of 0.074106 on 1 procs for 14 steps with 720 atoms

Minimization stats:
  Stopping criterion = force tolerance
  Energy initial, next-to-last, final =
  Force two-norm initial, final = 2.1571e-05 2.22986e-11
  Force max component initial, final = 1.9851e-06 1.35475e-12
  Final line search alpha, max atom move = 1 1.35475e-12
  Iterations, force evaluations = 14 28

# Obtain new stress tensor

variable tmp equal pxx
variable pxx1 equal -0.0116829151871563
variable tmp equal pyy
variable pyy1 equal -0.00590460148248228
variable tmp equal pzz
variable pzz1 equal -1.21142562686624e-07
variable tmp equal pxy
variable pxy1 equal 0.157469540060246
variable tmp equal pxz
variable pxz1 equal -4.64002481373557e-11
variable tmp equal pyz
variable pyz1 equal -2.36007197501628e-08

# Compute elastic constant from pressure tensor

variable C1neg equal -0.728564790238553
variable C2neg equal 0.0319073086481211
variable C3neg equal -0.19040802091383
variable C4neg equal -28.0113940351036
variable C5neg equal -1.77072240339031e-08
variable C6neg equal 15.7469540044409

# Reset box and simulation parameters

clear
box tilt large
read_restart restart.equil
  triclinic box = (0.14141 0.184714 -0.067884) to (20.1086 26.9835 47.1595) with tilt (0 0 0)
  720 atoms
include potential.mod
pair_style eam/alloy
pair_coeff * * /users/knc6/Software/jarvis/jarvis/lammps/examples/Al03.eam.alloy  Al
neighbor 1.0 nsq
neigh_modify once no every 1 delay 0 check yes
min_style  cg
min_modify           dmax 0.01 line quadratic
thermo          1
thermo_style custom step temp press cpu pxx pyy pzz pxy pxz pyz ke pe etotal vol lx ly lz atoms
thermo_modify norm no

# Positive deformation

variable delta equal 1e-06*26.7987976004143
change_box all xy delta 2.67987976004143e-05 remap units box
  triclinic box = (0.14141 0.184714 -0.067884) to (20.1086 26.9835 47.1595) with tilt (2.67988e-05 0 0)

# Relax atoms positions

minimize 0 1e-10 1000 10000
  1 neighbor list requests
  update every 1 steps, delay 0 steps, check yes
Step Temp Press CPU Pxx Pyy Pzz Pxy Pxz Pyz KinEng PotEng TotEng Volume Lx Ly Lz Atoms
1025            0 -0.0058623408            0 -0.011682754 -0.0059044373 1.6941314e-07  -0.16355649 -0.0090325385 2.4261232e-08            0   -2362.8263   -2362.8263    25271.191    19.967181    26.798798    47.227359      720
Loop time of 0.0740621 on 1 procs for 14 steps with 720 atoms

Minimization stats:
  Stopping criterion = force tolerance
  Energy initial, next-to-last, final =
  Force two-norm initial, final = 2.1571e-05 2.23054e-11
  Force max component initial, final = 1.9851e-06 1.35358e-12
  Final line search alpha, max atom move = 1 1.35358e-12
  Iterations, force evaluations = 14 28

# Obtain new stress tensor

variable tmp equal pe
variable e1 equal -2362.82627245627
variable tmp equal press
variable p1 equal -0.00586254592848676
variable tmp equal pxx
variable pxx1 equal -0.0116829151814809
variable tmp equal pyy
variable pyy1 equal -0.00590460146033802
variable tmp equal pzz
variable pzz1 equal -1.21143641373394e-07
variable tmp equal pxy
variable pxy1 equal -0.157469540066376
variable tmp equal pxz
variable pxz1 equal 8.08641144866795e-12
variable tmp equal pyz
variable pyz1 equal -2.36061866744835e-08

# Compute elastic constant from pressure tensor

variable C1pos equal 0.728564789671013
variable C2pos equal -0.031907310862547
variable C3pos equal 0.190408021021698
variable C4pos equal 28.0113940356503
variable C5pos equal 1.22585580753007e-08
variable C6pos equal 15.7469540082213

# Combine positive and negative

variable C16 equal 0.5*(-0.728564790238553+0.728564789671013)
variable C26 equal 0.5*(0.0319073086481211+-0.031907310862547)
variable C36 equal 0.5*(-0.19040802091383+0.190408021021698)
variable C46 equal 0.5*(-28.0113940351036+28.0113940356503)
variable C56 equal 0.5*(-1.77072240339031e-08+1.22585580753007e-08)
variable C66 equal 0.5*(15.7469540044409+15.7469540082213)

# Delete dir to make sure it is not reused

variable dir delete

# Output final values

variable C11all equal 40.572877690225
variable C22all equal 45.021462502373
variable C33all equal -3.10209705006725e-08

variable C12all equal 0.5*(15.0627156978461+15.0555322243885)
variable C13all equal 0.5*(-7.87455170014884e-07+-0.00313600241339801)
variable C23all equal 0.5*(-7.21154989998668e-07+1.58600803004671e-07)

variable C44all equal -4.3450043563098e-10
variable C55all equal 2.993333792106e-10
variable C66all equal 15.7469540063311

variable C14all equal 0.5*(6.5845660035535e-08+0.0652860422818495)
variable C15all equal 0.5*(-3.12720016548695e-10+1.736754700348e-10)
variable C16all equal 0.5*(-2.83770007492024e-10+2.2325531212378e-10)

variable C24all equal 0.5*(-2.10379325949611e-07+-1.43812499686646e-08)
variable C25all equal 0.5*(-1.71285447631009e-10+-1.2336453144055e-10)
variable C26all equal 0.5*(-1.10721294979688e-09+4.5160384591508e-10)

variable C34all equal 0.5*(-1.44620265499218e-07+2.901646000808e-06)
variable C35all equal 0.5*(6.50205028707163e-11+-1.808506730254e-10)
variable C36all equal 0.5*(5.39339961580509e-11+-3.58484125856615e-10)

variable C45all equal 0.5*(-3.62399887876563e-10+1.50524535935851e-10)
variable C46all equal 0.5*(2.73351119517429e-10+-5.8425384026509e-10)
variable C56all equal 0.5*(-2.7243329793012e-09+-5.88103150722665e-10)

# For Stillinger-Weber silicon, the analytical results
# are known to be (E. R. Cowley, 1988):
#               C11 = 151.4 GPa
#               C12 = 76.4 GPa
#               C44 = 56.4 GPa

Elastic Constant C11all = 40.572877690225 GPa
Elastic Constant C22all = 45.021462502373 GPa
Elastic Constant C33all = -3.10209705006725e-08 GPa

Elastic Constant C12all = 15.0591239611173 GPa
Elastic Constant C13all = -0.00156839493428401 GPa
Elastic Constant C23all = -2.81277093496999e-07 GPa

Elastic Constant C44all = -4.3450043563098e-10 GPa
Elastic Constant C55all = 2.993333792106e-10 GPa
Elastic Constant C66all = 15.7469540063311 GPa

Elastic Constant C14all = 0.0326430540637548 GPa
Elastic Constant C15all = -6.95222732569475e-11 GPa
Elastic Constant C16all = -3.0257347684122e-11 GPa

Elastic Constant C24all = -1.12380287959138e-07 GPa
Elastic Constant C25all = -1.47324989535779e-10 GPa
Elastic Constant C26all = -3.278045519409e-10 GPa

Elastic Constant C34all = 1.37851286765439e-06 GPa
Elastic Constant C35all = -5.79150850773419e-11 GPa
Elastic Constant C36all = -1.52275064849282e-10 GPa

Elastic Constant C45all = -1.05937675970356e-10 GPa
Elastic Constant C46all = -1.5545136037383e-10 GPa
Elastic Constant C56all = -1.65621806501193e-09 GPa
