#======================================================================

# CRYSTAL DATA

#----------------------------------------------------------------------

data_VESTA_phase_1


_chemical_name_common                  'BaFeAs122_NM'
_cell_length_a                         3.96250
_cell_length_b                         3.96250
_cell_length_c                         13.01680
_cell_angle_alpha                      90
_cell_angle_beta                       90
_cell_angle_gamma                      90
_space_group_name_H-M_alt              'I 1'
_space_group_IT_number                 1

loop_
_space_group_symop_operation_xyz
   'x, y, z'
   'x+1/2, y+1/2, z+1/2'

loop_
   _atom_site_label
   _atom_site_occupancy
   _atom_site_cartn_x
   _atom_site_cartn_y
   _atom_site_cartn_z
   _atom_site_adp_type
   _atom_site_B_iso_or_equiv
   _atom_site_type_symbol
   Ba1        1.0     0.000000      0.000000      0.000000     Biso  1.000000 Ba
   Fe1        1.0     0.500000      0.000000      0.250000     Biso  1.000000 Fe
   Fe2        1.0     0.500000      0.000000      0.750000     Biso  1.000000 Fe
   As1        1.0     0.000000      0.000000      0.354500     Biso  1.000000 As
   As2        1.0     0.000000      0.000000      0.645500     Biso  1.000000 As

